
  EPA STORM WATER MANAGEMENT MODEL - VERSION 5.1 (Build 5.1.009)
  --------------------------------------------------------------
