
  EPA STORM WATER MANAGEMENT MODEL - VERSION 5.1 (Build 5.1.012)
  --------------------------------------------------------------

  WARNING 08: elevation drop exceeds length for Conduit C-38
  WARNING 04: minimum elevation drop used for Conduit PLB86087
  WARNING 04: minimum elevation drop used for Conduit PLT81685
  WARNING 04: minimum elevation drop used for Conduit PLT81686
  WARNING 04: minimum elevation drop used for Conduit PLT82321
  WARNING 04: minimum elevation drop used for Conduit PLT82322
  WARNING 04: minimum elevation drop used for Conduit PLT82450
  WARNING 04: minimum elevation drop used for Conduit PLT82451
  WARNING 08: elevation drop exceeds length for Conduit PLT85738
  WARNING 02: maximum depth increased for Node CRE01
  WARNING 02: maximum depth increased for Node CRE02
  WARNING 02: maximum depth increased for Node CRE05
  WARNING 02: maximum depth increased for Node PMC98478
  WARNING 02: maximum depth increased for Node PMP92838
  WARNING 02: maximum depth increased for Node PMP92850
  WARNING 02: maximum depth increased for Node PMP92917
  WARNING 02: maximum depth increased for Node PMP92942
  WARNING 02: maximum depth increased for Node PMP92945
  WARNING 02: maximum depth increased for Node PMP92949
  WARNING 02: maximum depth increased for Node PMP92949GB7
  WARNING 02: maximum depth increased for Node PMP92955GA17
  WARNING 02: maximum depth increased for Node PMP92973
  WARNING 02: maximum depth increased for Node PMP92979
  WARNING 02: maximum depth increased for Node PMP93012
  WARNING 02: maximum depth increased for Node PMP93012GA12
  WARNING 02: maximum depth increased for Node PMP93016
  WARNING 02: maximum depth increased for Node PMP93019
  WARNING 02: maximum depth increased for Node PMP93049
  WARNING 02: maximum depth increased for Node PMP930512
  WARNING 02: maximum depth increased for Node PMP930512GB10
  WARNING 02: maximum depth increased for Node PMP93051GB9
  WARNING 02: maximum depth increased for Node PMP93088
  
  *********************************************************
  NOTE: The summary statistics displayed in this report are
  based on results found at every computational time step,  
  not just on results from each reporting time step.
  *********************************************************
  
  ****************
  Analysis Options
  ****************
  Flow Units ............... LPS
  Process Models:
    Rainfall/Runoff ........ YES
    RDII ................... NO
    Snowmelt ............... NO
    Groundwater ............ NO
    Flow Routing ........... YES
    Ponding Allowed ........ NO
    Water Quality .......... NO
  Infiltration Method ...... HORTON
  Flow Routing Method ...... DYNWAVE
  Starting Date ............ 08/23/2013 00:00:00
  Ending Date .............. 08/23/2013 05:00:00
  Antecedent Dry Days ...... 0.0
  Report Time Step ......... 00:15:00
  Wet Time Step ............ 00:05:00
  Dry Time Step ............ 01:00:00
  Routing Time Step ........ 30.00 sec
  Variable Time Step ....... YES
  Maximum Trials ........... 8
  Number of Threads ........ 4
  Head Tolerance ........... 0.001500 m
  
  
  **************************        Volume         Depth
  Runoff Quantity Continuity     hectare-m            mm
  **************************     ---------       -------
  Total Precipitation ......         1.309        16.157
  Evaporation Loss .........         0.000         0.000
  Infiltration Loss ........         0.129         1.597
  Surface Runoff ...........         1.180        14.573
  Final Storage ............         0.006         0.070
  Continuity Error (%) .....        -0.511
  
  
  **************************        Volume        Volume
  Flow Routing Continuity        hectare-m      10^6 ltr
  **************************     ---------     ---------
  Dry Weather Inflow .......         0.000         0.000
  Wet Weather Inflow .......         1.179        11.790
  Groundwater Inflow .......         0.000         0.000
  RDII Inflow ..............         0.000         0.000
  External Inflow ..........         0.000         0.000
  External Outflow .........         1.037        10.368
  Flooding Loss ............         0.114         1.144
  Evaporation Loss .........         0.000         0.000
  Exfiltration Loss ........         0.000         0.000
  Initial Stored Volume ....         0.000         0.000
  Final Stored Volume ......         0.023         0.230
  Continuity Error (%) .....         0.405
  
  
  *************************
  Highest Continuity Errors
  *************************
  Node PMP92955GA17 (7.74%)
  Node PMP93124 (7.01%)
  Node PMP92893GA18 (3.19%)
  Node PMP93112 (2.83%)
  Node PMP93175 (-2.75%)
  
  
  ***************************
  Time-Step Critical Elements
  ***************************
  Link PLB86097 (62.29%)
  Link PLT85976 (20.25%)
  Link PLT100662 (6.52%)
  Link PLT85711 (6.33%)
  Link PLT100882 (1.82%)
  
  
  ********************************
  Highest Flow Instability Indexes
  ********************************
  Link PLT85850 (17)
  Link GA10 (16)
  Link PLT85792 (16)
  Link GC10 (12)
  Link GA9 (9)
  
  
  *************************
  Routing Time Step Summary
  *************************
  Minimum Time Step           :     0.50 sec
  Average Time Step           :     1.49 sec
  Maximum Time Step           :    30.00 sec
  Percent in Steady State     :    -0.00
  Average Iterations per Step :     2.66
  Percent Not Converging      :     5.28
  
  
  ***************************
  Subcatchment Runoff Summary
  ***************************
  
  --------------------------------------------------------------------------------------------------------
                            Total      Total      Total      Total      Total       Total     Peak  Runoff
                           Precip      Runon       Evap      Infil     Runoff      Runoff   Runoff   Coeff
  Subcatchment                 mm         mm         mm         mm         mm    10^6 ltr      LPS
  --------------------------------------------------------------------------------------------------------
  C-2                       16.16       0.00       0.00       1.95      14.02        0.56   272.96   0.868
  C-3                       16.16       0.00       0.00       1.95      13.60        0.82   350.85   0.842
  C-4                       16.16       0.00       0.00       1.54      14.69        0.19   127.45   0.909
  C-5                       16.16       0.00       0.00       1.54      14.69        0.19   127.45   0.909
  C-6                       16.16       0.00       0.00       1.54      14.69        0.19   127.45   0.909
  C-7                       16.16       0.00       0.00       1.60      14.63        0.22   141.67   0.905
  C-8                       16.16       0.00       0.00       1.74      14.48        0.29   173.67   0.896
  C-9                       16.16       0.00       0.00       1.87      14.35        0.36   201.90   0.888
  C-10                      16.16       0.00       0.00       1.77      14.45        0.30   179.58   0.895
  C-11                      16.16       0.00       0.00       1.69      14.54        0.26   161.40   0.900
  C-12                      16.16       0.00       0.00       1.69      14.54        0.26   161.40   0.900
  C-13                      16.16       0.00       0.00       1.60      14.63        0.22   141.67   0.905
  C-14                      16.16       0.00       0.00       1.54      14.69        0.19   127.45   0.909
  C-15                      16.16       0.00       0.00       1.66      14.57        0.25   155.01   0.902
  C-16                      16.16       0.00       0.00       1.13      15.13        0.05    36.75   0.936
  C-17                      16.16       0.00       0.00       1.36      14.88        0.12    87.02   0.921
  C-18                      16.16       0.00       0.00       1.51      14.73        0.18   119.97   0.912
  C-19                      16.16       0.00       0.00       1.57      14.66        0.21   134.67   0.907
  C-20                      16.16       0.00       0.00       1.57      14.66        0.21   134.67   0.907
  C-21                      16.16       0.00       0.00       1.13      15.13        0.05    36.75   0.936
  C-22                      16.16       0.00       0.00       1.51      14.73        0.18   119.97   0.912
  C-23                      16.16       0.00       0.00       1.60      14.63        0.22   141.67   0.905
  C-24                      16.16       0.00       0.00       1.60      14.63        0.22   141.67   0.905
  C-25                      16.16       0.00       0.00       1.51      14.73        0.18   119.97   0.912
  C-26                      16.16       0.00       0.00       1.60      14.63        0.22   141.67   0.905
  C-27                      16.16       0.00       0.00       1.60      14.63        0.22   141.67   0.905
  C-28                      16.16       0.00       0.00       1.60      14.63        0.22   141.67   0.905
  C-29                      16.16       0.00       0.00       1.69      14.54        0.26   161.40   0.900
  C-30                      16.16       0.00       0.00       1.69      14.54        0.26   161.40   0.900
  C-31                      16.16       0.00       0.00       1.13      15.13        0.05    36.75   0.936
  C-36                      16.16       0.00       0.00       1.51      14.73        0.18   119.97   0.912
  C-37                      16.16       0.00       0.00       1.23      15.02        0.08    58.32   0.929
  C-38                      16.16       0.00       0.00       1.36      14.88        0.12    87.02   0.921
  C-40                      16.16       0.00       0.00       1.40      14.84        0.13    95.76   0.918
  C-41                      16.16       0.00       0.00       1.23      15.02        0.08    58.32   0.929
  C-42                      16.16       0.00       0.00       1.23      15.02        0.08    58.32   0.929
  C-43                      16.16       0.00       0.00       1.23      15.02        0.08    58.32   0.929
  C-44                      16.16       0.00       0.00       1.28      14.97        0.09    68.33   0.926
  C-45                      16.16       0.00       0.00       1.28      14.97        0.09    68.33   0.926
  C-46                      16.16       0.00       0.00       1.40      14.84        0.13    95.76   0.918
  C-47                      16.16       0.00       0.00       1.36      14.88        0.12    87.02   0.921
  C-48                      16.16       0.00       0.00       1.23      15.02        0.08    58.32   0.929
  C-49                      16.16       0.00       0.00       1.51      14.73        0.18   119.97   0.912
  C-50                      16.16       0.00       0.00       1.44      14.80        0.15   104.15   0.916
  C-51                      16.16       0.00       0.00       1.40      14.84        0.13    95.76   0.918
  C-52                      16.16       0.00       0.00       1.51      14.73        0.18   119.97   0.912
  C-53                      16.16       0.00       0.00       1.44      14.80        0.15   104.15   0.916
  C-54                      16.16       0.00       0.00       1.44      14.80        0.15   104.15   0.916
  C-55                      16.16       0.00       0.00       1.74      14.48        0.29   173.67   0.896
  C-56                      16.16       0.00       0.00       1.28      14.97        0.09    68.33   0.926
  C-57                      16.16       0.00       0.00       1.57      14.66        0.21   134.67   0.907
  C-58                      16.16       0.00       0.00       1.47      14.76        0.16   112.21   0.914
  C-59                      16.16       0.00       0.00       1.60      14.63        0.22   141.67   0.905
  C-60                      16.16       0.00       0.00       1.47      14.76        0.16   112.21   0.914
  C-61                      16.16       0.00       0.00       1.71      14.51        0.28   167.62   0.898
  C-62                      16.16       0.00       0.00       1.40      14.84        0.13    95.76   0.918
  C-63                      16.16       0.00       0.00       1.40      14.84        0.13    95.76   0.918
  C-65                      16.16       0.00       0.00       1.36      14.88        0.12    87.02   0.921
  C-66                      16.16       0.00       0.00       1.32      14.92        0.10    77.88   0.924
  C-67                      16.16       0.00       0.00       1.19      15.07        0.06    47.81   0.933
  C-68                      16.16       0.00       0.00       1.23      15.02        0.08    58.32   0.929
  C-69                      16.16       0.00       0.00       1.36      14.88        0.12    87.02   0.921
  C-70                      16.16       0.00       0.00       1.44      14.80        0.15   104.15   0.916
  C-71                      16.16       0.00       0.00       1.60      14.63        0.22   141.67   0.905
  
  
  ******************
  Node Depth Summary
  ******************
  
  ---------------------------------------------------------------------------------
                                 Average  Maximum  Maximum  Time of Max    Reported
                                   Depth    Depth      HGL   Occurrence   Max Depth
  Node                 Type       Meters   Meters   Meters  days hr:min      Meters
  ---------------------------------------------------------------------------------
  CRE01                JUNCTION     0.35     0.68  2547.96     0  02:21        0.65
  CRE02                JUNCTION     0.21     0.38  2548.30     0  02:20        0.37
  CRE03                JUNCTION     0.21     0.38  2549.13     0  02:18        0.37
  CRE04                JUNCTION     0.20     0.37  2549.14     0  02:18        0.36
  CRE05                JUNCTION     0.16     0.28  2549.36     0  02:17        0.28
  CRE06                JUNCTION     0.03     0.08  2569.87     0  01:45        0.08
  CRE07                JUNCTION     0.37     0.83  2549.18     0  02:02        0.82
  CRE08                JUNCTION     0.11     0.26  2557.01     0  01:49        0.22
  CRE09                JUNCTION     0.05     0.13  2587.67     0  01:45        0.13
  PMC98455             JUNCTION     0.09     0.26  2554.63     0  01:54        0.25
  PMC98457             JUNCTION     0.11     0.31  2554.30     0  01:56        0.28
  PMC98478             JUNCTION     0.53     0.93  2550.60     0  02:17        0.93
  PMCI106387           JUNCTION     0.11     0.36  2558.77     0  01:45        0.35
  PMCI106387GB22       JUNCTION     0.04     0.12  2558.53     0  01:45        0.12
  PMI105964            JUNCTION     0.00     0.00  2548.28     0  00:00        0.00
  PMI105971            JUNCTION     0.00     0.00  2548.58     0  00:00        0.00
  PMI106004            JUNCTION     0.00     0.00  2549.46     0  00:00        0.00
  PMI106007            JUNCTION     0.07     0.76  2549.78     0  01:58        0.35
  PMI106008            JUNCTION     0.00     0.00  2549.00     0  00:00        0.00
  PMI60590             JUNCTION     0.24     0.67  2547.47     0  02:11        0.58
  PMI92722             JUNCTION     0.00     0.00  2578.57     0  00:00        0.00
  PMI92729             JUNCTION     0.07     0.23  2554.24     0  01:45        0.23
  PMI92730             JUNCTION     0.10     1.31  2557.59     0  01:43        0.86
  PMI92731             JUNCTION     0.13     0.39  2555.83     0  01:45        0.38
  PMI92732             JUNCTION     0.12     2.90  2566.85     0  01:43        1.27
  PMI92733             JUNCTION     0.08     0.23  2551.22     0  01:45        0.23
  PMI92734             JUNCTION     0.04     0.15  2556.12     0  01:45        0.15
  PMI92735             JUNCTION     0.09     0.27  2563.94     0  01:45        0.27
  PMI92736             JUNCTION     0.10     0.28  2553.16     0  01:45        0.28
  PMI92737             JUNCTION     0.04     0.15  2553.75     0  01:45        0.15
  PMI92738             JUNCTION     0.00     0.00  2551.43     0  00:00        0.00
  PMI92739             JUNCTION     0.00     0.00  2554.82     0  00:00        0.00
  PMI92740             JUNCTION     0.08     0.25  2551.20     0  01:45        0.25
  PMI92741             JUNCTION     0.00     0.02  2553.62     0  01:51        0.00
  PMI92742             JUNCTION     0.00     0.00  2549.97     0  00:00        0.00
  PMI92743             JUNCTION     0.05     0.17  2554.55     0  01:45        0.17
  PMI92744             JUNCTION     0.00     0.00  2580.81     0  00:00        0.00
  PMI92745             JUNCTION     0.07     0.26  2556.86     0  01:45        0.24
  PMI92747             JUNCTION     0.06     0.20  2577.25     0  01:45        0.19
  PMI92748             JUNCTION     0.14     1.48  2573.45     0  01:41        1.02
  PMI92749             JUNCTION     0.00     0.00  2552.93     0  00:00        0.00
  PMI92750             JUNCTION     0.00     0.00  2552.56     0  00:00        0.00
  PMI92751             JUNCTION     0.05     0.15  2554.51     0  01:45        0.15
  PMI92752             JUNCTION     0.00     0.00  2554.53     0  00:00        0.00
  PMI92753             JUNCTION     0.00     0.00  2557.31     0  00:00        0.00
  PMI92754             JUNCTION     0.07     0.18  2555.22     0  01:45        0.18
  PMI92755             JUNCTION     0.05     0.20  2553.84     0  01:45        0.20
  PMI92756             JUNCTION     0.00     0.00  2568.85     0  00:00        0.00
  PMI92757             JUNCTION     0.00     0.00  2554.96     0  00:00        0.00
  PMI92758             JUNCTION     0.00     0.04  2551.84     0  02:04        0.02
  PMI92759             JUNCTION     0.11     0.33  2553.88     0  01:45        0.33
  PMI92760             JUNCTION     0.09     0.25  2550.27     0  01:45        0.25
  PMI92761             JUNCTION     0.10     0.28  2551.74     0  01:45        0.28
  PMI92762             JUNCTION     0.09     0.27  2552.37     0  01:45        0.27
  PMI92763             JUNCTION     0.21     1.17  2555.80     0  01:41        0.71
  PMI92764             JUNCTION     0.05     0.16  2575.42     0  01:45        0.16
  PMI92765             JUNCTION     0.09     0.25  2552.60     0  01:45        0.25
  PMI92766             JUNCTION     0.13     1.53  2570.74     0  01:44        0.80
  PMI92767             JUNCTION     0.05     0.18  2556.02     0  01:45        0.18
  PMI92768             JUNCTION     0.10     0.29  2552.34     0  01:45        0.29
  PMI92770             JUNCTION     0.22     1.63  2552.26     0  01:44        1.58
  PMI92771             JUNCTION     0.00     0.00  2568.25     0  00:00        0.00
  PMI92772             JUNCTION     0.08     0.23  2559.40     0  01:45        0.23
  PMI92773             JUNCTION     0.00     0.00  2560.45     0  00:00        0.00
  PMI92774             JUNCTION     0.03     0.10  2575.69     0  01:45        0.10
  PMI92775             JUNCTION     0.02     0.09  2572.16     0  01:45        0.09
  PMI92776             JUNCTION     0.04     0.13  2551.21     0  01:45        0.13
  PMI92777             JUNCTION     0.00     0.00  2555.85     0  00:00        0.00
  PMI92778             JUNCTION     0.05     0.19  2553.35     0  01:45        0.19
  PMI92779             JUNCTION     0.00     0.00  2556.51     0  00:00        0.00
  PMI92780             JUNCTION     0.00     0.00  2556.74     0  00:00        0.00
  PMI92781             JUNCTION     0.04     0.13  2558.44     0  01:45        0.13
  PMI92782             JUNCTION     0.10     0.32  2553.63     0  01:45        0.31
  PMI92783             JUNCTION     0.23     1.34  2557.70     0  01:41        1.34
  PMI92784             JUNCTION     0.00     0.00  2569.15     0  00:00        0.00
  PMI92785             JUNCTION     0.06     0.19  2561.11     0  01:45        0.19
  PMI92786             JUNCTION     0.08     0.22  2560.88     0  01:45        0.22
  PMI92787             JUNCTION     0.00     0.00  2575.80     0  00:00        0.00
  PMI92788             JUNCTION     0.09     0.24  2552.47     0  01:45        0.24
  PMI92789             JUNCTION     0.08     1.03  2553.75     0  01:44        0.40
  PMI92790             JUNCTION     0.00     0.00  2580.68     0  00:00        0.00
  PMI92791             JUNCTION     0.07     0.19  2573.09     0  01:45        0.19
  PMI92792             JUNCTION     0.12     2.20  2558.81     0  01:42        0.83
  PMI92793             JUNCTION     0.10     0.92  2555.34     0  01:44        0.43
  PMI92794             JUNCTION     0.05     0.15  2550.85     0  01:45        0.15
  PMI92795             JUNCTION     0.00     0.00  2563.35     0  00:00        0.00
  PMI92796             JUNCTION     0.07     0.23  2555.44     0  01:45        0.23
  PMI92797             JUNCTION     0.00     0.00  2567.90     0  00:00        0.00
  PMI92799             JUNCTION     0.16     0.50  2552.21     0  01:48        0.36
  PMI92800             JUNCTION     0.31     1.93  2553.35     0  01:55        0.94
  PMI92801             JUNCTION     0.00     0.00  2552.35     0  00:00        0.00
  PMI92802             JUNCTION     0.00     0.00  2552.23     0  00:00        0.00
  PMI92803             JUNCTION     0.00     0.00  2551.03     0  00:00        0.00
  PMI92804             JUNCTION     0.11     0.30  2552.14     0  01:45        0.30
  PMI92806             JUNCTION     0.00     0.02  2554.31     0  01:47        0.00
  PMI92807             JUNCTION     0.00     0.00  2554.44     0  00:00        0.00
  PMI92808             JUNCTION     0.00     0.00  2558.47     0  00:00        0.00
  PMI92809             JUNCTION     0.06     0.22  2556.31     0  01:45        0.21
  PMI92810             JUNCTION     0.00     0.00  2553.16     0  00:00        0.00
  PMI92811             JUNCTION     0.00     0.00  2553.50     0  00:00        0.00
  PMI92812             JUNCTION     0.09     0.72  2554.67     0  01:43        0.42
  PMI92813             JUNCTION     0.00     0.00  2585.93     0  00:00        0.00
  PMI92819             JUNCTION     0.00     0.01  2550.12     0  01:48        0.00
  PMP105957            JUNCTION     0.00     0.00  2547.94     0  00:00        0.00
  PMP105960            JUNCTION     0.00     0.00  2547.81     0  00:00        0.00
  PMP105962            JUNCTION     0.14     0.50  2547.95     0  02:04        0.47
  PMP105968            JUNCTION     0.00     0.00  2547.48     0  00:00        0.00
  PMP105970            JUNCTION     0.50     1.08  2548.40     0  02:01        1.06
  PMP105972            JUNCTION     0.00     0.00  2549.34     0  00:00        0.00
  PMP106006            JUNCTION     0.39     0.83  2548.85     0  02:01        0.82
  PMP106064            JUNCTION     0.00     0.00  2547.69     0  00:00        0.00
  PMP106065            JUNCTION     0.00     0.00  2547.63     0  00:00        0.00
  PMP106066            JUNCTION     0.00     0.00  2547.74     0  00:00        0.00
  PMP106067            JUNCTION     0.00     0.00  2547.75     0  00:00        0.00
  PMP106068            JUNCTION     0.00     0.00  2547.83     0  00:00        0.00
  PMP106069            JUNCTION     0.00     0.00  2548.93     0  00:00        0.00
  PMP106070            JUNCTION     0.00     0.00  2547.87     0  00:00        0.00
  PMP106071            JUNCTION     0.00     0.00  2547.94     0  00:00        0.00
  PMP106072            JUNCTION     0.00     0.00  2547.92     0  00:00        0.00
  PMP106073            JUNCTION     0.00     0.00  2547.95     0  00:00        0.00
  PMP106074            JUNCTION     0.00     0.00  2548.37     0  00:00        0.00
  PMP106075            JUNCTION     0.00     0.00  2548.44     0  00:00        0.00
  PMP106076            JUNCTION     0.00     0.00  2548.18     0  00:00        0.00
  PMP106077            JUNCTION     0.00     0.00  2548.08     0  00:00        0.00
  PMP106078            JUNCTION     0.00     0.00  2548.82     0  00:00        0.00
  PMP106081            JUNCTION     0.00     0.00  2548.22     0  00:00        0.00
  PMP106082            JUNCTION     0.49     1.23  2549.41     0  02:03        1.19
  PMP106083            JUNCTION     0.21     0.79  2549.44     0  01:58        0.72
  PMP106084            JUNCTION     0.14     0.80  2549.62     0  01:58        0.55
  PMP106085            JUNCTION     0.00     0.00  2548.74     0  00:00        0.00
  PMP106086            JUNCTION     0.00     0.00  2548.75     0  00:00        0.00
  PMP106087            JUNCTION     0.00     0.00  2548.63     0  00:00        0.00
  PMP106155            JUNCTION     0.11     0.91  2559.91     0  01:42        0.73
  PMP106384            JUNCTION     0.14     0.34  2556.84     0  01:51        0.28
  PMP106385            JUNCTION     0.13     0.68  2559.33     0  01:42        0.57
  PMP106386            JUNCTION     0.07     0.23  2558.83     0  01:45        0.23
  PMP108534            JUNCTION     0.03     0.12  2556.75     0  01:45        0.12
  PMP108535            JUNCTION     0.03     0.11  2557.29     0  01:45        0.11
  PMP108536            JUNCTION     0.03     0.12  2557.41     0  01:45        0.12
  PMP108537            JUNCTION     0.00     0.00  2556.60     0  00:00        0.00
  PMP108538            JUNCTION     0.00     0.00  2556.43     0  00:00        0.00
  PMP115623            JUNCTION     0.00     0.00  2551.84     0  00:00        0.00
  PMP115624            JUNCTION     0.00     0.00  2552.11     0  00:00        0.00
  PMP60972             JUNCTION     0.41     0.80  2550.60     0  02:15        0.79
  PMP62782             JUNCTION     0.46     0.80  2550.60     0  02:15        0.80
  PMP63233             JUNCTION     0.44     0.80  2550.60     0  02:14        0.79
  PMP63245             JUNCTION     0.24     0.70  2547.50     0  02:09        0.60
  PMP63246             JUNCTION     0.24     0.72  2547.52     0  02:09        0.60
  PMP63313             JUNCTION     0.00     0.00  2553.80     0  00:00        0.00
  PMP63314             JUNCTION     0.00     0.00  2553.80     0  00:00        0.00
  PMP63315             JUNCTION     0.00     0.00  2553.80     0  00:00        0.00
  PMP63316             JUNCTION     0.06     0.08  2551.88     0  02:31        0.08
  PMP92820             JUNCTION     0.35     0.80  2547.94     0  02:02        0.78
  PMP92821             JUNCTION     0.48     1.04  2548.35     0  02:02        1.02
  PMP92822             JUNCTION     0.00     0.00  2547.74     0  00:00        0.00
  PMP92827             JUNCTION     0.08     0.20  2565.61     0  01:46        0.19
  PMP92828             JUNCTION     0.06     0.18  2567.93     0  01:47        0.17
  PMP92828GB20         JUNCTION     0.05     0.12  2567.87     0  01:47        0.11
  PMP92829             JUNCTION     0.26     0.70  2550.81     0  02:16        0.60
  PMP92830             JUNCTION     0.07     0.22  2551.60     0  01:45        0.22
  PMP92834             JUNCTION     0.01     0.07  2551.12     0  02:09        0.06
  PMP92838             JUNCTION     0.30     0.73  2551.47     0  02:05        0.70
  PMP92840             JUNCTION     0.18     0.41  2555.85     0  01:52        0.37
  PMP92841             JUNCTION     0.09     0.25  2553.67     0  01:46        0.24
  PMP92842             JUNCTION     0.14     0.38  2552.31     0  01:45        0.38
  PMP92843             JUNCTION     0.08     0.20  2555.66     0  01:55        0.18
  PMP92843GA3          JUNCTION     0.07     0.17  2555.63     0  01:55        0.16
  PMP92844             JUNCTION     0.07     0.19  2555.51     0  01:46        0.18
  PMP92845             JUNCTION     0.10     0.25  2556.55     0  01:49        0.21
  PMP92846             JUNCTION     0.05     0.16  2553.73     0  01:45        0.16
  PMP92847             JUNCTION     0.10     0.26  2557.88     0  01:48        0.22
  PMP92848             JUNCTION     0.08     0.20  2556.20     0  01:51        0.16
  PMP92849             JUNCTION     0.00     0.00  2556.49     0  00:00        0.00
  PMP92850             JUNCTION     0.22     0.56  2553.81     0  01:56        0.53
  PMP92851             JUNCTION     0.00     0.00  2550.07     0  00:00        0.00
  PMP92852             JUNCTION     0.00     0.00  2552.43     0  00:00        0.00
  PMP92853             JUNCTION     0.14     0.32  2554.60     0  01:56        0.31
  PMP92853GB2          JUNCTION     0.13     0.29  2554.57     0  01:56        0.28
  PMP92854             JUNCTION     0.17     0.44  2554.04     0  01:56        0.42
  PMP92855             JUNCTION     0.08     0.18  2552.87     0  01:48        0.17
  PMP92856             JUNCTION     0.26     0.61  2554.26     0  01:56        0.58
  PMP92857             JUNCTION     0.06     0.19  2554.62     0  01:45        0.19
  PMP92859             JUNCTION     0.03     0.11  2560.99     0  01:46        0.11
  PMP92860             JUNCTION     0.14     0.32  2550.71     0  01:53        0.29
  PMP92861             JUNCTION     0.03     0.10  2563.29     0  01:45        0.09
  PMP92862             JUNCTION     0.04     0.13  2564.09     0  01:45        0.13
  PMP92863             JUNCTION     0.12     0.36  2561.77     0  01:49        0.29
  PMP92863GA15         JUNCTION     0.30     0.30     0.30     0  01:18        0.30
  PMP92864             JUNCTION     0.11     0.27  2562.14     0  01:49        0.23
  PMP92865             JUNCTION     0.08     0.23  2556.44     0  01:45        0.23
  PMP92866             JUNCTION     0.07     0.21  2551.25     0  01:46        0.20
  PMP92867             JUNCTION     0.00     0.00  2568.90     0  00:00        0.00
  PMP92868             JUNCTION     0.11     0.25  2551.35     0  01:49        0.22
  PMP92869             JUNCTION     0.09     0.25  2551.54     0  01:48        0.22
  PMP92870             JUNCTION     0.15     0.36  2553.62     0  01:52        0.31
  PMP92871             JUNCTION     0.00     0.00  2554.70     0  00:00        0.00
  PMP92872             JUNCTION     0.08     0.22  2550.18     0  01:48        0.20
  PMP92873             JUNCTION     0.11     0.28  2553.41     0  01:53        0.25
  PMP92874             JUNCTION     0.03     0.08  2553.45     0  01:47        0.08
  PMP92875             JUNCTION     0.10     0.25  2553.35     0  01:53        0.22
  PMP92876             JUNCTION     0.07     0.19  2556.32     0  01:45        0.18
  PMP92877             JUNCTION     0.00     0.00  2549.12     0  00:00        0.00
  PMP92878             JUNCTION     0.00     0.00  2549.22     0  00:00        0.00
  PMP92879             JUNCTION     0.00     0.00  2550.77     0  00:00        0.00
  PMP92880             JUNCTION     0.20     0.45  2555.91     0  01:52        0.40
  PMP92881             JUNCTION     0.05     0.14  2553.85     0  01:46        0.13
  PMP92882             JUNCTION     0.12     0.29  2556.03     0  01:50        0.24
  PMP92883             JUNCTION     0.00     0.00  2551.84     0  00:00        0.00
  PMP92884             JUNCTION     0.07     0.25  2563.19     0  01:45        0.25
  PMP92885             JUNCTION     0.26     0.58  2549.50     0  02:04        0.54
  PMP92886             JUNCTION     0.09     0.27  2561.26     0  01:47        0.24
  PMP92886GA1          JUNCTION     0.07     0.19  2561.18     0  01:48        0.17
  PMP92887             JUNCTION     0.00     0.00  2552.34     0  00:00        0.00
  PMP92888             JUNCTION     0.09     0.26  2553.98     0  01:45        0.26
  PMP92889             JUNCTION     0.00     0.00  2562.77     0  00:00        0.00
  PMP92890             JUNCTION     0.10     0.26  2559.02     0  01:48        0.23
  PMP92891             JUNCTION     0.44     0.89  2549.39     0  01:59        0.89
  PMP92891GA25         JUNCTION     0.43     0.85  2549.35     0  02:00        0.85
  PMP92892             JUNCTION     0.05     0.14  2564.53     0  01:46        0.14
  PMP92893             JUNCTION     0.01     0.02  2553.32     0  01:59        0.02
  PMP92893GA18         JUNCTION     0.01     0.02  2553.32     0  01:59        0.02
  PMP92894             JUNCTION     0.11     0.30  2556.03     0  01:46        0.29
  PMP92895             JUNCTION     0.05     0.11  2551.77     0  01:53        0.11
  PMP92896             JUNCTION     0.17     0.39  2553.78     0  01:52        0.33
  PMP92897             JUNCTION     0.15     0.39  2550.12     0  01:47        0.35
  PMP92898             JUNCTION     0.21     0.44  2552.05     0  01:50        0.38
  PMP92899             JUNCTION     0.08     0.21  2566.09     0  01:45        0.21
  PMP92900             JUNCTION     0.04     0.12  2565.26     0  01:47        0.11
  PMP92901             JUNCTION     0.10     0.26  2568.40     0  01:47        0.24
  PMP92901GB20         JUNCTION     0.06     0.14  2568.28     0  01:48        0.13
  PMP92902             JUNCTION     0.00     0.00  2576.12     0  00:00        0.00
  PMP92903             JUNCTION     0.11     0.28  2571.66     0  01:45        0.28
  PMP92904             JUNCTION     0.19     1.02  2572.44     0  01:41        0.62
  PMP92905             JUNCTION     0.14     0.32  2555.07     0  01:53        0.28
  PMP92906             JUNCTION     0.10     0.31  2562.82     0  01:45        0.30
  PMP92906GB1          JUNCTION     0.07     0.18  2562.69     0  01:46        0.17
  PMP92907             JUNCTION     0.03     0.10  2575.44     0  01:45        0.10
  PMP92908             JUNCTION     0.17     1.45  2552.00     0  01:44        1.40
  PMP92909             JUNCTION     0.38     0.80  2550.77     0  02:16        0.79
  PMP92910             JUNCTION     0.14     0.37  2551.13     0  02:12        0.35
  PMP92911             JUNCTION     0.08     0.28  2552.63     0  01:45        0.26
  PMP92912             JUNCTION     0.06     0.17  2554.66     0  01:46        0.17
  PMP92913             JUNCTION     0.24     0.50  2552.48     0  01:59        0.50
  PMP92914             JUNCTION     0.18     0.48  2552.44     0  02:01        0.48
  PMP92915             JUNCTION     0.00     0.00  2549.62     0  00:00        0.00
  PMP92916             JUNCTION     0.11     0.28  2555.84     0  01:52        0.24
  PMP92917             JUNCTION     0.23     0.58  2553.63     0  01:56        0.56
  PMP92918             JUNCTION     0.08     0.27  2556.01     0  01:46        0.26
  PMP92918GB3          JUNCTION     0.06     0.17  2555.90     0  01:46        0.16
  PMP92919             JUNCTION     0.00     0.00  2561.90     0  00:00        0.00
  PMP92920             JUNCTION     0.05     0.14  2556.83     0  01:50        0.12
  PMP92921             JUNCTION     0.07     0.20  2565.13     0  01:45        0.20
  PMP92922             JUNCTION     0.06     0.15  2560.40     0  01:48        0.13
  PMP92923             JUNCTION     0.10     0.29  2556.01     0  01:46        0.28
  PMP92924             JUNCTION     0.00     0.00  2562.56     0  00:00        0.00
  PMP92925             JUNCTION     0.30     0.64  2549.61     0  01:55        0.60
  PMP92926             JUNCTION     0.16     0.34  2551.58     0  01:54        0.31
  PMP92927             JUNCTION     0.07     0.16  2561.31     0  01:48        0.15
  PMP92928             JUNCTION     0.25     0.65  2553.17     0  01:53        0.55
  PMP92929             JUNCTION     0.00     0.00  2571.91     0  00:00        0.00
  PMP92930             JUNCTION     0.06     0.19  2566.75     0  01:45        0.19
  PMP92931             JUNCTION     0.08     0.24  2568.72     0  01:45        0.23
  PMP92932             JUNCTION     0.12     0.34  2554.03     0  01:49        0.29
  PMP92932GB24         JUNCTION     0.09     0.22  2553.91     0  01:49        0.19
  PMP92933             JUNCTION     0.09     0.25  2568.22     0  01:47        0.23
  PMP92934             JUNCTION     0.04     0.14  2570.20     0  01:45        0.14
  PMP92935             JUNCTION     0.04     0.12  2572.12     0  01:45        0.12
  PMP92936             JUNCTION     0.07     0.17  2570.99     0  01:46        0.16
  PMP92937             JUNCTION     0.07     0.22  2556.32     0  01:46        0.21
  PMP92938             JUNCTION     0.13     0.31  2551.40     0  01:51        0.27
  PMP92939             JUNCTION     0.07     0.18  2551.70     0  01:47        0.16
  PMP92940             JUNCTION     0.08     0.22  2552.04     0  01:46        0.21
  PMP92941             JUNCTION     0.09     0.28  2551.75     0  02:04        0.24
  PMP92942             JUNCTION     0.53     0.92  2550.59     0  02:17        0.92
  PMP92943             JUNCTION     0.08     0.24  2552.15     0  01:47        0.23
  PMP92944             JUNCTION     0.13     0.30  2553.30     0  01:53        0.27
  PMP92945             JUNCTION     0.32     0.77  2551.74     0  02:04        0.75
  PMP92946             JUNCTION     0.31     0.78  2551.84     0  02:04        0.76
  PMP92947             JUNCTION     0.16     0.34  2555.74     0  01:52        0.30
  PMP92948             JUNCTION     0.24     0.75  2552.25     0  01:54        0.72
  PMP92949             JUNCTION     0.29     0.70  2552.95     0  01:58        0.70
  PMP92949GB7          JUNCTION     0.20     0.49  2552.74     0  01:58        0.49
  PMP92950             JUNCTION     0.00     0.00  2554.38     0  00:00        0.00
  PMP92951             JUNCTION     0.41     0.88  2549.25     0  02:00        0.88
  PMP92952             JUNCTION     0.13     0.33  2554.29     0  01:56        0.29
  PMP92953             JUNCTION     0.05     0.14  2561.93     0  01:47        0.13
  PMP92954             JUNCTION     0.35     0.81  2548.98     0  02:00        0.81
  PMP92955             JUNCTION     0.05     0.16  2555.14     0  01:49        0.13
  PMP92955GA17         JUNCTION     0.86     0.90     0.90     0  01:33        0.90
  PMP92956             JUNCTION     0.07     0.20  2556.94     0  01:46        0.19
  PMP92957             JUNCTION     0.00     0.00  2567.34     0  00:00        0.00
  PMP92958             JUNCTION     0.13     0.36  2562.84     0  01:47        0.33
  PMP92958GB5          JUNCTION     0.09     0.22  2562.70     0  01:47        0.20
  PMP92959             JUNCTION     0.02     0.07  2571.69     0  01:45        0.07
  PMP92960             JUNCTION     0.11     0.31  2551.33     0  01:46        0.29
  PMP92961             JUNCTION     0.09     0.24  2551.86     0  01:46        0.23
  PMP92962             JUNCTION     0.10     0.25  2554.86     0  01:47        0.23
  PMP92962GA23         JUNCTION     0.12     0.34  2554.95     0  01:46        0.33
  PMP92963             JUNCTION     0.07     0.18  2558.12     0  01:45        0.17
  PMP92964             JUNCTION     0.12     0.43  2568.82     0  01:45        0.42
  PMP92964GB13         JUNCTION     0.10     0.30  2568.69     0  01:45        0.29
  PMP92965             JUNCTION     0.04     0.12  2571.68     0  01:45        0.12
  PMP92966             JUNCTION     0.04     0.14  2553.33     0  01:45        0.13
  PMP92967             JUNCTION     0.10     0.24  2555.22     0  01:55        0.22
  PMP92968             JUNCTION     0.00     0.00  2547.60     0  00:00        0.00
  PMP92968G            JUNCTION     0.27     0.80  2548.40     0  02:01        0.78
  PMP92969             JUNCTION     0.00     0.00  2566.62     0  00:00        0.00
  PMP92970             JUNCTION     0.00     0.00  2579.38     0  00:00        0.00
  PMP92971             JUNCTION     0.27     0.83  2551.26     0  02:11        0.69
  PMP92972             JUNCTION     0.06     0.14  2551.51     0  01:45        0.14
  PMP92973             JUNCTION     0.53     0.95  2550.64     0  02:17        0.94
  PMP92974             JUNCTION     0.52     0.98  2550.75     0  02:16        0.98
  PMP92975             JUNCTION     0.06     0.19  2555.42     0  01:45        0.18
  PMP92976             JUNCTION     0.06     0.18  2554.19     0  01:46        0.17
  PMP92977             JUNCTION     0.09     0.23  2550.47     0  01:47        0.22
  PMP92978             JUNCTION     0.47     0.86  2550.61     0  02:14        0.85
  PMP92979             JUNCTION     0.26     0.43  2549.57     0  02:17        0.42
  PMP92980             JUNCTION     0.12     0.28  2555.67     0  01:52        0.24
  PMP92981             JUNCTION     0.00     0.00  2554.37     0  00:00        0.00
  PMP92983             JUNCTION     0.00     0.00  2560.55     0  00:00        0.00
  PMP92984             JUNCTION     0.07     0.20  2553.60     0  01:48        0.18
  PMP92984G6           JUNCTION     0.07     0.17  2553.57     0  01:49        0.15
  PMP92985             JUNCTION     0.09     0.22  2551.03     0  01:50        0.18
  PMP92986             JUNCTION     0.20     0.54  2550.79     0  02:17        0.47
  PMP92988             JUNCTION     0.07     0.17  2552.79     0  01:48        0.15
  PMP92989             JUNCTION     0.06     0.17  2559.53     0  01:49        0.15
  PMP92990             JUNCTION     0.08     0.20  2553.22     0  01:47        0.19
  PMP92990GB18         JUNCTION     0.10     0.29  2553.31     0  01:46        0.28
  PMP92991             JUNCTION     0.09     0.19  2552.28     0  01:52        0.17
  PMP92991GA19         JUNCTION     0.08     0.18  2552.27     0  01:53        0.17
  PMP92992             JUNCTION     0.07     0.24  2556.02     0  01:46        0.23
  PMP92993             JUNCTION     0.08     0.18  2558.88     0  01:48        0.16
  PMP92994             JUNCTION     0.06     0.18  2559.32     0  01:45        0.17
  PMP92995             JUNCTION     0.02     0.08  2566.36     0  01:45        0.08
  PMP92996             JUNCTION     0.01     0.02  2556.79     0  01:47        0.02
  PMP92997             JUNCTION     0.07     0.17  2550.81     0  01:51        0.14
  PMP92998             JUNCTION     0.21     1.83  2552.34     0  01:43        0.73
  PMP92999             JUNCTION     0.15     0.35  2555.01     0  01:52        0.29
  PMP93000             JUNCTION     0.11     0.28  2563.36     0  01:48        0.25
  PMP93000GB14         JUNCTION     0.13     0.35  2563.43     0  01:47        0.33
  PMP93001             JUNCTION     0.11     0.34  2552.23     0  01:45        0.33
  PMP93002             JUNCTION     0.11     0.26  2558.86     0  01:50        0.21
  PMP93003             JUNCTION     0.13     0.39  2566.22     0  01:47        0.34
  PMP93003GA14         JUNCTION     0.07     0.19  2566.03     0  01:48        0.17
  PMP93004             JUNCTION     0.09     0.32  2573.57     0  01:46        0.30
  PMP93004GA13         JUNCTION     0.05     0.12  2573.37     0  01:46        0.12
  PMP93005             JUNCTION     0.07     0.21  2553.83     0  01:46        0.21
  PMP93006             JUNCTION     0.11     0.28  2551.90     0  01:47        0.26
  PMP93007             JUNCTION     0.20     1.48  2551.98     0  01:44        1.44
  PMP93008             JUNCTION     0.29     0.76  2551.12     0  02:10        0.75
  PMP93008GA9          JUNCTION     0.29     0.76  2551.12     0  02:10        0.75
  PMP93009             JUNCTION     0.14     0.36  2553.76     0  01:49        0.31
  PMP93010             JUNCTION     0.41     0.95  2551.12     0  02:11        0.93
  PMP93011             JUNCTION     0.15     0.49  2551.74     0  02:04        0.47
  PMP93011GA8          JUNCTION     0.14     0.49  2551.74     0  02:04        0.47
  PMP93012             JUNCTION     0.39     0.70  2550.28     0  02:18        0.70
  PMP93012GA12         JUNCTION     0.23     0.43  2550.00     0  02:18        0.42
  PMP93013             JUNCTION     0.12     0.27  2552.56     0  01:54        0.24
  PMP93014             JUNCTION     0.37     0.92  2552.13     0  02:02        0.91
  PMP93014GB8          JUNCTION     0.32     0.80  2552.00     0  02:03        0.78
  PMP93015             JUNCTION     0.97     2.56  2553.26     0  01:55        1.65
  PMP93016             JUNCTION     0.33     0.80  2553.17     0  01:57        0.79
  PMP93017             JUNCTION     0.00     0.00  2549.43     0  00:00        0.00
  PMP93018             JUNCTION     0.07     0.21  2561.88     0  01:46        0.20
  PMP93019             JUNCTION     0.32     0.83  2553.40     0  01:56        0.76
  PMP93020             JUNCTION     0.00     0.00  2548.21     0  00:00        0.00
  PMP93021             JUNCTION     0.00     0.00  2548.73     0  00:00        0.00
  PMP93022             JUNCTION     0.00     0.00  2551.43     0  00:00        0.00
  PMP93023             JUNCTION     0.12     0.28  2555.03     0  01:54        0.26
  PMP93024             JUNCTION     0.39     0.84  2549.27     0  02:00        0.84
  PMP93025             JUNCTION     0.41     0.85  2549.29     0  02:00        0.85
  PMP93026             JUNCTION     0.13     0.31  2554.90     0  01:53        0.28
  PMP93027             JUNCTION     0.07     0.21  2555.97     0  01:47        0.19
  PMP93027GC3          JUNCTION     0.05     0.14  2555.89     0  01:48        0.12
  PMP93028             JUNCTION     0.08     0.19  2555.03     0  01:51        0.16
  PMP93029             JUNCTION     0.49     0.94  2549.46     0  01:58        0.93
  PMP93030             JUNCTION     0.03     0.10  2561.39     0  01:46        0.10
  PMP93031             JUNCTION     0.01     0.03  2553.88     0  01:46        0.03
  PMP93031GB17         JUNCTION     0.07     0.22  2554.08     0  01:46        0.22
  PMP93033             JUNCTION     0.15     0.35  2551.00     0  01:52        0.31
  PMP93034             JUNCTION     0.17     0.44  2549.85     0  01:48        0.41
  PMP93035             JUNCTION     0.02     0.08  2569.16     0  01:45        0.08
  PMP93036             JUNCTION     0.08     0.27  2559.84     0  01:46        0.26
  PMP93036GB15         JUNCTION     0.01     0.02  2558.59     0  01:46        0.02
  PMP93037             JUNCTION     0.12     0.31  2552.05     0  01:49        0.25
  PMP93038             JUNCTION     0.09     0.27  2556.55     0  01:47        0.25
  PMP93038GB23         JUNCTION     0.07     0.16  2556.44     0  01:47        0.15
  PMP93039             JUNCTION     0.16     0.47  2564.06     0  01:49        0.38
  PMP93039GA21         JUNCTION     0.11     0.29  2563.89     0  01:49        0.24
  PMP93040             JUNCTION     0.10     0.29  2564.25     0  01:47        0.26
  PMP93040GB21         JUNCTION     0.07     0.17  2564.13     0  01:48        0.15
  PMP93041             JUNCTION     0.08     0.21  2568.59     0  01:45        0.21
  PMP93042             JUNCTION     0.00     0.00  2580.23     0  00:00        0.00
  PMP93043             JUNCTION     0.00     0.00  2583.34     0  00:00        0.00
  PMP93044             JUNCTION     0.11     0.30  2551.48     0  01:46        0.29
  PMP93045             JUNCTION     0.10     0.28  2560.01     0  01:47        0.25
  PMP93046             JUNCTION     0.12     0.29  2552.52     0  01:49        0.26
  PMP93046GA24         JUNCTION     0.13     0.32  2552.55     0  01:49        0.29
  PMP93047             JUNCTION     0.09     0.22  2551.06     0  01:50        0.17
  PMP93048             JUNCTION     0.00     0.00  2552.37     0  00:00        0.00
  PMP93049             JUNCTION     0.54     1.00  2550.74     0  02:16        1.00
  PMP93050             JUNCTION     0.11     0.27  2553.33     0  01:52        0.23
  PMP93051             JUNCTION     0.51     1.09  2551.18     0  02:11        1.06
  PMP930512            JUNCTION     0.37     0.87  2550.95     0  02:12        0.86
  PMP930512GB10        JUNCTION     0.31     0.75  2550.83     0  02:13        0.75
  PMP93051GB9          JUNCTION     0.48     1.03  2551.12     0  02:11        1.01
  PMP93052             JUNCTION     0.00     0.00  2554.04     0  00:00        0.00
  PMP93053             JUNCTION     0.19     0.40  2553.11     0  01:53        0.36
  PMP93054             JUNCTION     0.10     0.28  2554.38     0  01:45        0.27
  PMP93055             JUNCTION     0.00     0.00  2553.94     0  00:00        0.00
  PMP93056             JUNCTION     0.11     0.26  2555.59     0  01:53        0.23
  PMP93057             JUNCTION     0.39     0.96  2552.23     0  02:02        0.95
  PMP93058             JUNCTION     0.18     0.33  2549.57     0  02:16        0.32
  PMP93058GB12         JUNCTION     0.18     0.33  2549.57     0  02:16        0.32
  PMP93059             JUNCTION     0.12     0.26  2549.65     0  01:50        0.22
  PMP93060             JUNCTION     0.11     0.30  2553.52     0  01:47        0.29
  PMP93061             JUNCTION     0.05     0.13  2550.45     0  01:46        0.12
  PMP93062             JUNCTION     0.16     0.39  2554.67     0  01:55        0.36
  PMP93062GA2          JUNCTION     0.14     0.31  2554.59     0  01:55        0.29
  PMP93063             JUNCTION     0.00     0.00  2562.52     0  00:00        0.00
  PMP93064             JUNCTION     0.10     1.16  2557.11     0  01:42        0.48
  PMP93065             JUNCTION     0.11     0.28  2554.84     0  01:52        0.25
  PMP93066             JUNCTION     0.04     0.12  2560.09     0  01:47        0.11
  PMP93066GB4          JUNCTION     0.03     0.08  2560.05     0  01:48        0.08
  PMP93067             JUNCTION     0.30     0.76  2549.10     0  02:03        0.75
  PMP93068             JUNCTION     0.05     0.16  2557.05     0  01:45        0.16
  PMP93069             JUNCTION     0.12     0.28  2550.29     0  01:54        0.26
  PMP93070             JUNCTION     0.04     0.12  2564.99     0  01:45        0.11
  PMP93071             JUNCTION     0.04     0.12  2563.68     0  01:46        0.12
  PMP93072             JUNCTION     0.07     0.17  2557.64     0  01:48        0.15
  PMP93073             JUNCTION     0.22     0.55  2552.93     0  01:54        0.50
  PMP93073GB19         JUNCTION     0.18     0.42  2552.79     0  01:54        0.38
  PMP93074             JUNCTION     0.14     0.32  2551.79     0  01:50        0.27
  PMP93075             JUNCTION     0.13     0.30  2555.59     0  01:52        0.25
  PMP93076             JUNCTION     0.00     0.00  2580.22     0  00:00        0.00
  PMP93077             JUNCTION     0.03     0.08  2567.95     0  01:46        0.08
  PMP93077GA20         JUNCTION     0.06     0.21  2568.09     0  01:46        0.20
  PMP93078             JUNCTION     0.08     0.23  2554.46     0  01:45        0.22
  PMP93079             JUNCTION     0.48     0.94  2550.76     0  02:16        0.92
  PMP93079GA10         JUNCTION     0.48     0.94  2550.76     0  02:14        0.91
  PMP93080             JUNCTION     0.09     0.23  2553.97     0  01:48        0.20
  PMP93081             JUNCTION     0.13     0.36  2554.24     0  01:47        0.33
  PMP93082             JUNCTION     0.13     0.33  2553.71     0  01:50        0.27
  PMP93083             JUNCTION     0.07     0.25  2553.71     0  01:50        0.19
  PMP93084             JUNCTION     0.08     0.21  2549.83     0  01:49        0.18
  PMP93085             JUNCTION     0.09     0.25  2550.87     0  01:46        0.24
  PMP93086             JUNCTION     0.09     1.56  2557.45     0  01:44        0.55
  PMP93088             JUNCTION     0.23     0.62  2553.48     0  01:57        0.60
  PMP93089             JUNCTION     0.00     0.00  2548.56     0  00:00        0.00
  PMP93090             JUNCTION     0.38     0.88  2549.49     0  02:03        0.84
  PMP93091             JUNCTION     0.05     0.12  2558.51     0  01:49        0.11
  PMP93092             JUNCTION     0.10     0.27  2549.15     0  02:01        0.22
  PMP93092GB25         JUNCTION     0.13     0.33  2549.21     0  01:56        0.32
  PMP93093             JUNCTION     0.06     0.18  2560.18     0  01:48        0.16
  PMP93093GA4          JUNCTION     0.05     0.13  2560.12     0  01:49        0.11
  PMP93094             JUNCTION     0.10     0.26  2556.10     0  01:50        0.21
  PMP93094GD3          JUNCTION     0.09     0.20  2556.04     0  01:51        0.17
  PMP93095             JUNCTION     0.45     0.91  2549.55     0  01:56        0.89
  PMP93096             JUNCTION     0.32     0.71  2548.70     0  02:01        0.71
  PMP93097             JUNCTION     0.18     0.47  2549.43     0  01:50        0.39
  PMP93097GC25         JUNCTION     0.15     0.36  2549.32     0  01:50        0.30
  PMP93098             JUNCTION     0.00     0.00  2565.99     0  00:00        0.00
  PMP930991            JUNCTION     0.09     0.23  2555.78     0  01:47        0.22
  PMP930992            JUNCTION     0.09     0.22  2555.77     0  01:47        0.21
  PMP93099G16          JUNCTION     0.08     0.20  2555.75     0  01:47        0.19
  PMP93100             JUNCTION     0.03     0.12  2563.39     0  01:47        0.11
  PMP93100GA5          JUNCTION     0.03     0.08  2563.35     0  01:47        0.08
  PMP93101             JUNCTION     0.33     0.73  2553.15     0  01:53        0.64
  PMP93102             JUNCTION     0.12     0.28  2551.88     0  01:50        0.24
  PMP93103             JUNCTION     0.06     0.17  2553.82     0  01:45        0.17
  PMP93104             JUNCTION     0.13     0.34  2550.76     0  01:47        0.32
  PMP93105             JUNCTION     0.08     0.21  2564.42     0  01:46        0.20
  PMP93107             JUNCTION     0.00     0.00  2574.53     0  00:00        0.00
  PMP93108             JUNCTION     0.05     0.13  2552.52     0  01:45        0.13
  PMP93109             JUNCTION     0.02     0.06  2551.71     0  01:46        0.06
  PMP93110             JUNCTION     0.06     0.16  2555.11     0  01:46        0.16
  PMP93111             JUNCTION     0.00     0.00  2551.91     0  00:00        0.00
  PMP93112             JUNCTION     0.00     0.01  2551.60     0  01:46        0.00
  PMP93113             JUNCTION     0.00     0.00  2551.79     0  00:00        0.00
  PMP93114             JUNCTION     0.03     0.13  2551.60     0  01:45        0.13
  PMP93115             JUNCTION     0.10     0.29  2552.36     0  01:46        0.28
  PMP93116             JUNCTION     0.07     0.20  2551.54     0  01:45        0.20
  PMP93117             JUNCTION     0.07     0.20  2551.45     0  01:45        0.19
  PMP93118             JUNCTION     0.09     0.25  2551.45     0  01:48        0.21
  PMP93119             JUNCTION     0.52     2.75  2553.92     0  01:50        1.18
  PMP93121             JUNCTION     0.06     0.22  2552.04     0  01:45        0.21
  PMP93122             JUNCTION     0.27     0.59  2550.69     0  01:48        0.55
  PMP93123             JUNCTION     0.18     0.38  2550.36     0  01:49        0.34
  PMP93124             JUNCTION     0.23     0.99  2551.14     0  02:13        0.51
  PMP93125             JUNCTION     0.00     0.00  2550.80     0  01:35        0.00
  PMP93126             JUNCTION     0.08     0.26  2552.21     0  01:46        0.24
  PMP93127             JUNCTION     0.08     0.20  2551.77     0  01:48        0.18
  PMP93128             JUNCTION     0.13     0.46  2551.75     0  01:58        0.42
  PMP93129             JUNCTION     0.07     0.25  2551.74     0  02:05        0.21
  PMP93130             JUNCTION     0.06     0.16  2551.16     0  01:50        0.12
  PMP93131             JUNCTION     0.10     0.29  2551.13     0  02:12        0.28
  PMP93132             JUNCTION     0.19     0.73  2551.27     0  02:11        0.59
  PMP93133             JUNCTION     0.00     0.00  2550.93     0  00:00        0.00
  PMP93134             JUNCTION     0.00     0.00  2550.96     0  00:00        0.00
  PMP93135             JUNCTION     0.04     0.12  2550.81     0  01:45        0.12
  PMP93136             JUNCTION     0.19     0.38  2550.62     0  01:45        0.37
  PMP93137             JUNCTION     0.09     0.24  2551.25     0  01:46        0.23
  PMP93139             JUNCTION     0.33     0.75  2547.68     0  02:05        0.72
  PMP93146             JUNCTION     0.27     0.57  2549.62     0  01:50        0.49
  PMP93147             JUNCTION     0.00     0.00  2550.52     0  00:00        0.00
  PMP93148             JUNCTION     0.03     0.12  2560.40     0  01:48        0.10
  PMP93151             JUNCTION     0.48     1.15  2549.43     0  02:03        1.11
  PMP93152             JUNCTION     0.23     1.64  2552.23     0  01:44        1.50
  PMP93153             JUNCTION     0.12     0.33  2551.81     0  01:46        0.31
  PMP93154             JUNCTION     0.12     0.32  2551.60     0  01:47        0.28
  PMP93155             JUNCTION     0.14     0.37  2551.52     0  01:49        0.31
  PMP93155GA11         JUNCTION     0.11     0.26  2551.41     0  01:49        0.22
  PMP93156             JUNCTION     0.08     0.18  2550.86     0  01:50        0.15
  PMP93157             JUNCTION     0.00     0.00  2550.86     0  00:00        0.00
  PMP93158             JUNCTION     0.00     0.00  2551.11     0  00:00        0.00
  PMP93159             JUNCTION     0.14     0.28  2549.79     0  01:51        0.26
  PMP93160             JUNCTION     0.04     0.11  2551.85     0  01:45        0.11
  PMP93161             JUNCTION     0.26     0.49  2550.05     0  01:51        0.44
  PMP93170             JUNCTION     0.44     1.10  2549.43     0  02:03        1.06
  PMP93171             JUNCTION     0.44     1.04  2549.46     0  02:02        0.99
  PMP93172             JUNCTION     0.00     0.00  2550.10     0  00:00        0.00
  PMP93173             JUNCTION     0.40     0.94  2549.48     0  02:02        0.90
  PMP93174             JUNCTION     0.29     0.57  2549.52     0  02:03        0.54
  PMP93175             JUNCTION     0.00     0.02  2554.44     0  01:46        0.01
  PMP93176             JUNCTION     0.02     0.14  2554.46     0  01:45        0.12
  PMP93177             JUNCTION     0.05     0.14  2554.36     0  01:45        0.12
  PMP93178             JUNCTION     0.11     0.33  2554.31     0  01:46        0.32
  PMP93179             JUNCTION     0.03     0.09  2561.90     0  01:45        0.09
  PMP93180             JUNCTION     0.14     0.34  2553.57     0  01:52        0.30
  PMP93181             JUNCTION     0.13     0.34  2553.59     0  01:52        0.29
  PMP93182             JUNCTION     0.04     0.13  2587.78     0  01:45        0.13
  PMP93183             JUNCTION     0.01     0.07  2552.34     0  02:02        0.04
  PMP93184             JUNCTION     0.01     0.09  2552.34     0  02:02        0.06
  PMP93185             JUNCTION     0.07     1.71  2553.67     0  01:53        0.38
  PMP93186             JUNCTION     0.09     0.29  2552.66     0  01:45        0.29
  PMP93187             JUNCTION     0.18     1.62  2553.02     0  01:46        0.39
  PMP93188             JUNCTION     0.19     2.53  2553.52     0  01:45        0.42
  PMP93189             JUNCTION     0.06     0.29  2551.27     0  01:47        0.14
  PMP93190             JUNCTION     0.29     1.29  2551.59     0  01:43        0.87
  PMP93192             JUNCTION     0.11     0.26  2552.86     0  01:53        0.23
  PMP93193             JUNCTION     0.04     0.14  2553.21     0  01:45        0.14
  PMP93194             JUNCTION     0.31     0.63  2550.22     0  01:50        0.55
  PMP93195             JUNCTION     0.09     0.32  2553.39     0  01:56        0.30
  PMP93196             JUNCTION     0.10     0.54  2553.48     0  01:56        0.48
  PMP93197             JUNCTION     0.00     0.00  2580.31     0  00:00        0.00
  PMP93198             JUNCTION     0.13     0.35  2564.94     0  01:48        0.31
  PMP93199             JUNCTION     0.00     0.00  2585.48     0  00:00        0.00
  PMP93205             JUNCTION     0.19     0.52  2557.67     0  01:51        0.42
  PMP93205GA22         JUNCTION     0.14     0.35  2557.50     0  01:51        0.30
  PMP93209             JUNCTION     0.15     0.46  2551.13     0  02:13        0.43
  PMP93210             JUNCTION     0.00     0.00  2557.84     0  00:00        0.00
  PMP93212             JUNCTION     0.21     1.41  2551.86     0  01:44        1.41
  PMP93213             JUNCTION     0.25     1.42  2551.82     0  01:44        1.41
  PMP93213GC10         JUNCTION     0.23     1.36  2551.76     0  01:44        1.33
  PMP93218             JUNCTION     0.00     0.00  2549.41     0  00:00        0.00
  PMP93219             JUNCTION     0.00     0.00  2549.68     0  00:00        0.00
  PMP93220             JUNCTION     0.00     0.00  2549.95     0  00:00        0.00
  PMP93221             JUNCTION     0.00     0.00  2550.15     0  00:00        0.00
  PMP93224             JUNCTION     0.09     0.24  2551.92     0  01:45        0.24
  PMP93225             JUNCTION     0.23     0.63  2550.84     0  02:17        0.61
  PMP93226             JUNCTION     0.17     0.45  2550.77     0  02:17        0.44
  PMP93227             JUNCTION     0.11     0.26  2550.77     0  02:15        0.26
  PMP93227GB11         JUNCTION     0.10     0.26  2550.77     0  02:15        0.26
  PMP93228             JUNCTION     0.45     0.87  2547.41     0  02:10        0.86
  PMP92914GA7          JUNCTION     0.18     0.48  2552.44     0  02:01        0.48
  DESC                 OUTFALL      0.44     0.87  2545.80     0  02:11        0.86
  
  
  *******************
  Node Inflow Summary
  *******************
  
  -------------------------------------------------------------------------------------------------
                                  Maximum  Maximum                  Lateral       Total        Flow
                                  Lateral    Total  Time of Max      Inflow      Inflow     Balance
                                   Inflow   Inflow   Occurrence      Volume      Volume       Error
  Node                 Type           LPS      LPS  days hr:min    10^6 ltr    10^6 ltr     Percent
  -------------------------------------------------------------------------------------------------
  CRE01                JUNCTION      0.00  1461.49     0  02:20           0        5.27       0.222
  CRE02                JUNCTION      0.00  1463.91     0  02:19           0        5.28       0.198
  CRE03                JUNCTION      0.00  1463.67     0  02:18           0        5.28       0.105
  CRE04                JUNCTION      0.00  1463.76     0  02:18           0        5.29       0.046
  CRE05                JUNCTION      0.00  1463.70     0  02:18           0        5.29       0.055
  CRE06                JUNCTION      0.00   131.86     0  01:45           0       0.205       0.019
  CRE07                JUNCTION      0.00  1373.22     0  02:02           0        3.13       0.257
  CRE08                JUNCTION      0.00   120.75     0  01:49           0       0.179       0.006
  CRE09                JUNCTION      0.00   134.62     0  01:45           0       0.205      -0.013
  PMC98455             JUNCTION      0.00   414.54     0  01:52           0       0.765       0.018
  PMC98457             JUNCTION      0.00   398.08     0  01:57           0       0.763      -0.079
  PMC98478             JUNCTION      0.00  1426.07     0  02:16           0        4.84       0.017
  PMCI106387           JUNCTION      0.00   140.73     0  01:45           0       0.219      -0.001
  PMCI106387GB22       JUNCTION      0.00   141.37     0  01:45           0       0.219      -0.004
  PMI105964            JUNCTION      0.00     0.00     0  00:00           0           0       0.000 ltr
  PMI105971            JUNCTION      0.00     0.00     0  00:00           0           0       0.000 ltr
  PMI106004            JUNCTION      0.00     0.00     0  00:00           0           0       0.000 ltr
  PMI106007            JUNCTION      0.00    11.61     0  01:53           0     0.00142       3.508
  PMI106008            JUNCTION      0.00     0.00     0  00:00           0           0       0.000 ltr
  PMI60590             JUNCTION      0.00    53.96     0  01:54           0      0.0149       2.796
  PMI92722             JUNCTION      0.00     0.00     0  00:00           0           0       0.000 ltr
  PMI92729             JUNCTION     95.76    95.76     0  01:45       0.133       0.133      -0.085
  PMI92730             JUNCTION     95.76    95.76     0  01:45       0.133       0.133       0.010
  PMI92731             JUNCTION    104.15   104.15     0  01:45       0.148       0.148      -0.037
  PMI92732             JUNCTION    141.67   141.67     0  01:45       0.219       0.219      -0.027
  PMI92733             JUNCTION    127.45   127.45     0  01:45       0.191       0.191      -0.092
  PMI92734             JUNCTION     36.75    36.75     0  01:45      0.0453      0.0453      -0.281
  PMI92735             JUNCTION    141.67   141.67     0  01:45       0.219       0.219      -0.048
  PMI92736             JUNCTION    161.40   161.40     0  01:45       0.262       0.261      -0.011
  PMI92737             JUNCTION     68.33    68.33     0  01:45      0.0897      0.0897      -0.015
  PMI92738             JUNCTION      0.00     0.00     0  00:00           0           0       0.000 ltr
  PMI92739             JUNCTION      0.00     0.00     0  00:00           0           0       0.000 ltr
  PMI92740             JUNCTION    119.97   119.97     0  01:45       0.177       0.177      -0.041
  PMI92741             JUNCTION      0.00     0.79     0  01:48           0   6.32e-005       0.148
  PMI92742             JUNCTION      0.00     0.00     0  00:00           0           0       0.000 ltr
  PMI92743             JUNCTION     58.32    58.32     0  01:45       0.075       0.075      -0.073
  PMI92744             JUNCTION      0.00     0.00     0  00:00           0           0       0.000 ltr
  PMI92745             JUNCTION     87.02    87.02     0  01:45       0.119       0.119      -0.022
  PMI92747             JUNCTION    104.15   104.15     0  01:45       0.148       0.148      -0.031
  PMI92748             JUNCTION    161.40   161.40     0  01:45       0.262       0.261      -0.018
  PMI92749             JUNCTION      0.00     0.00     0  00:00           0           0       0.000 ltr
  PMI92750             JUNCTION      0.00     0.00     0  00:00           0           0       0.000 ltr
  PMI92751             JUNCTION    134.67   134.67     0  01:45       0.205       0.205      -0.026
  PMI92752             JUNCTION      0.00     0.00     0  00:00           0           0       0.000 ltr
  PMI92753             JUNCTION      0.00     0.00     0  00:00           0           0       0.000 ltr
  PMI92754             JUNCTION    134.67   134.67     0  01:45       0.205       0.205      -0.030
  PMI92755             JUNCTION     68.33    68.33     0  01:45      0.0897      0.0897      -0.053
  PMI92756             JUNCTION      0.00     0.00     0  00:00           0           0       0.000 ltr
  PMI92757             JUNCTION      0.00     0.00     0  00:00           0           0       0.000 ltr
  PMI92758             JUNCTION      0.00     2.12     0  01:59           0    0.000247       0.187
  PMI92759             JUNCTION    155.01   155.01     0  01:45       0.248       0.247      -0.004
  PMI92760             JUNCTION    141.67   141.67     0  01:45       0.219       0.219      -0.043
  PMI92761             JUNCTION    127.45   127.45     0  01:45       0.191       0.191      -0.070
  PMI92762             JUNCTION    127.45   127.45     0  01:45       0.191       0.191      -0.015
  PMI92763             JUNCTION    141.67   141.67     0  01:45       0.219       0.219       0.032
  PMI92764             JUNCTION    112.21   112.21     0  01:45       0.162       0.162      -0.071
  PMI92765             JUNCTION    127.45   127.45     0  01:45       0.191       0.191      -0.045
  PMI92766             JUNCTION    161.40   161.40     0  01:45       0.262       0.261      -0.063
  PMI92767             JUNCTION     87.02    87.02     0  01:45       0.119       0.119      -0.053
  PMI92768             JUNCTION    141.67   141.67     0  01:45       0.219       0.219      -0.021
  PMI92770             JUNCTION    173.67   173.67     0  01:45       0.289       0.289      -0.020
  PMI92771             JUNCTION      0.00     0.00     0  00:00           0           0       0.000 ltr
  PMI92772             JUNCTION    141.67   141.67     0  01:45       0.219       0.219      -0.024
  PMI92773             JUNCTION      0.00     0.00     0  00:00           0           0       0.000 ltr
  PMI92774             JUNCTION     68.33    68.33     0  01:45      0.0897      0.0897      -0.031
  PMI92775             JUNCTION     36.75    36.75     0  01:45      0.0453      0.0453      -0.061
  PMI92776             JUNCTION     58.32    58.32     0  01:45       0.075       0.075      -0.036
  PMI92777             JUNCTION      0.00     0.00     0  00:00           0           0       0.000 ltr
  PMI92778             JUNCTION     58.32    58.32     0  01:45       0.075       0.075      -0.021
  PMI92779             JUNCTION      0.00     0.00     0  00:00           0           0       0.000 ltr
  PMI92780             JUNCTION      0.00     0.00     0  00:00           0           0       0.000 ltr
  PMI92781             JUNCTION     77.88    77.88     0  01:45       0.104       0.104      -0.028
  PMI92782             JUNCTION    119.97   119.97     0  01:45       0.177       0.177      -0.052
  PMI92783             JUNCTION    161.40   161.40     0  01:45       0.262       0.261      -0.002
  PMI92784             JUNCTION      0.00     0.00     0  00:00           0           0       0.000 ltr
  PMI92785             JUNCTION    104.15   104.15     0  01:45       0.148       0.148      -0.021
  PMI92786             JUNCTION    141.67   141.67     0  01:45       0.219       0.219      -0.024
  PMI92787             JUNCTION      0.00     0.00     0  00:00           0           0       0.000 ltr
  PMI92788             JUNCTION    167.62   167.62     0  01:45       0.276       0.275      -0.012
  PMI92789             JUNCTION     87.02    87.02     0  01:45       0.119       0.119       0.005
  PMI92790             JUNCTION      0.00     0.00     0  00:00           0           0       0.000 ltr
  PMI92791             JUNCTION    173.67   173.67     0  01:45       0.289       0.289      -0.012
  PMI92792             JUNCTION    119.97   119.97     0  01:45       0.177       0.177      -0.000
  PMI92793             JUNCTION     95.76    95.76     0  01:45       0.133       0.133      -0.027
  PMI92794             JUNCTION     58.32    58.32     0  01:45       0.075       0.075      -0.442
  PMI92795             JUNCTION      0.00     0.00     0  00:00           0           0       0.000 ltr
  PMI92796             JUNCTION     87.02    87.02     0  01:45       0.119       0.119      -0.025
  PMI92797             JUNCTION      0.00     0.00     0  00:00           0           0       0.000 ltr
  PMI92799             JUNCTION    272.96   272.96     0  01:45        0.56        0.56       0.010
  PMI92800             JUNCTION      0.00    21.93     0  01:56           0     0.00667      -0.648
  PMI92801             JUNCTION      0.00     0.00     0  00:00           0           0       0.000 ltr
  PMI92802             JUNCTION      0.00     0.00     0  00:00           0           0       0.000 ltr
  PMI92803             JUNCTION      0.00     0.00     0  00:00           0           0       0.000 ltr
  PMI92804             JUNCTION    141.67   141.67     0  01:45       0.219       0.219      -0.017
  PMI92806             JUNCTION      0.00     1.16     0  01:47           0   6.67e-005       0.241
  PMI92807             JUNCTION      0.00     0.00     0  00:00           0           0       0.000 ltr
  PMI92808             JUNCTION      0.00     0.00     0  00:00           0           0       0.000 ltr
  PMI92809             JUNCTION     95.76    95.76     0  01:45       0.133       0.133      -0.020
  PMI92810             JUNCTION      0.00     0.00     0  00:00           0           0       0.000 ltr
  PMI92811             JUNCTION      0.00     0.00     0  00:00           0           0       0.000 ltr
  PMI92812             JUNCTION    119.97   119.97     0  01:45       0.177       0.177      -0.015
  PMI92813             JUNCTION      0.00     0.00     0  00:00           0           0       0.000 ltr
  PMI92819             JUNCTION      0.00     1.07     0  01:46           0   3.14e-005       1.226
  PMP105957            JUNCTION      0.00     0.00     0  00:00           0           0       0.000 ltr
  PMP105960            JUNCTION      0.00     0.00     0  00:00           0           0       0.000 ltr
  PMP105962            JUNCTION      0.00     4.96     0  01:51           0     0.00168      -1.015
  PMP105968            JUNCTION      0.00     0.00     0  00:00           0           0       0.000 ltr
  PMP105970            JUNCTION      0.00  1888.38     0  02:01           0        5.14       0.062
  PMP105972            JUNCTION      0.00     0.00     0  00:00           0           0       0.000 ltr
  PMP106006            JUNCTION      0.00  1894.75     0  02:00           0        5.14       0.079
  PMP106064            JUNCTION      0.00     0.00     0  00:00           0           0       0.000 ltr
  PMP106065            JUNCTION      0.00     0.00     0  00:00           0           0       0.000 ltr
  PMP106066            JUNCTION      0.00     0.00     0  00:00           0           0       0.000 ltr
  PMP106067            JUNCTION      0.00     0.00     0  00:00           0           0       0.000 ltr
  PMP106068            JUNCTION      0.00     0.00     0  00:00           0           0       0.000 ltr
  PMP106069            JUNCTION      0.00     0.00     0  00:00           0           0       0.000 ltr
  PMP106070            JUNCTION      0.00     0.00     0  00:00           0           0       0.000 ltr
  PMP106071            JUNCTION      0.00     0.00     0  00:00           0           0       0.000 ltr
  PMP106072            JUNCTION      0.00     0.00     0  00:00           0           0       0.000 ltr
  PMP106073            JUNCTION      0.00     0.00     0  00:00           0           0       0.000 ltr
  PMP106074            JUNCTION      0.00     0.00     0  00:00           0           0       0.000 ltr
  PMP106075            JUNCTION      0.00     0.00     0  00:00           0           0       0.000 ltr
  PMP106076            JUNCTION      0.00     0.00     0  00:00           0           0       0.000 ltr
  PMP106077            JUNCTION      0.00     0.00     0  00:00           0           0       0.000 ltr
  PMP106078            JUNCTION      0.00     0.00     0  00:00           0           0       0.000 ltr
  PMP106081            JUNCTION      0.00     0.00     0  00:00           0           0       0.000 ltr
  PMP106082            JUNCTION      0.00   347.12     0  02:06           0        1.24       0.046
  PMP106083            JUNCTION      0.00    19.89     0  01:51           0     0.00851      -0.299
  PMP106084            JUNCTION      0.00    15.15     0  01:51           0     0.00491      -0.348
  PMP106085            JUNCTION      0.00     0.00     0  00:00           0           0       0.000 ltr
  PMP106086            JUNCTION      0.00     0.00     0  00:00           0           0       0.000 ltr
  PMP106087            JUNCTION      0.00     0.00     0  00:00           0           0       0.000 ltr
  PMP106155            JUNCTION    141.67   141.67     0  01:45       0.219       0.219      -0.021
  PMP106384            JUNCTION      0.00   606.94     0  01:51           0        1.08      -0.009
  PMP106385            JUNCTION      0.00   141.66     0  01:45           0       0.219       0.012
  PMP106386            JUNCTION      0.00   141.66     0  01:45           0       0.219      -0.005
  PMP108534            JUNCTION      0.00    36.37     0  01:45           0      0.0453      -0.079
  PMP108535            JUNCTION      0.00    36.64     0  01:45           0      0.0453      -0.020
  PMP108536            JUNCTION     36.75    36.75     0  01:45      0.0453      0.0453      -0.017
  PMP108537            JUNCTION      0.00     0.00     0  00:00           0           0       0.000 ltr
  PMP108538            JUNCTION      0.00     0.00     0  00:00           0           0       0.000 ltr
  PMP115623            JUNCTION      0.00     0.00     0  00:00           0           0       0.000 ltr
  PMP115624            JUNCTION      0.00     0.00     0  00:00           0           0       0.000 ltr
  PMP60972             JUNCTION      0.00   175.77     0  01:45           0       0.303      -0.043
  PMP62782             JUNCTION    179.58   179.58     0  01:45       0.303       0.303      -0.016
  PMP63233             JUNCTION      0.00   179.39     0  01:45           0       0.303       0.003
  PMP63245             JUNCTION      0.00    80.21     0  01:55           0      0.0419      -0.777
  PMP63246             JUNCTION      0.00    98.54     0  01:55           0      0.0651      -0.223
  PMP63313             JUNCTION      0.00     0.00     0  00:00           0           0       0.000 ltr
  PMP63314             JUNCTION      0.00     0.00     0  00:00           0           0       0.000 ltr
  PMP63315             JUNCTION      0.00     0.00     0  00:00           0           0       0.000 ltr
  PMP63316             JUNCTION      0.00     1.89     0  01:46           0    0.000667       0.000
  PMP92820             JUNCTION      0.00  1880.02     0  02:02           0        5.13       0.034
  PMP92821             JUNCTION      0.00  1880.91     0  02:01           0        5.13       0.041
  PMP92822             JUNCTION      0.00     0.00     0  00:00           0           0       0.000 ltr
  PMP92827             JUNCTION      0.00   158.64     0  01:45           0       0.262      -0.024
  PMP92828             JUNCTION      0.00   131.21     0  01:45           0       0.205      -0.013
  PMP92828GB20         JUNCTION      0.00   126.75     0  01:47           0       0.205       0.139
  PMP92829             JUNCTION      0.00   325.91     0  02:06           0       0.463       0.043
  PMP92830             JUNCTION     95.76    95.76     0  01:45       0.133       0.136      -0.019
  PMP92834             JUNCTION      0.00    14.30     0  02:07           0     0.00206       2.074
  PMP92838             JUNCTION      0.00  1479.40     0  02:04           0        3.56       0.075
  PMP92840             JUNCTION      0.00   214.42     0  01:51           0       0.367       0.162
  PMP92841             JUNCTION      0.00    93.07     0  01:45           0       0.133       0.085
  PMP92842             JUNCTION      0.00   265.22     0  01:45           0        0.41       0.034
  PMP92843             JUNCTION      0.00   116.62     0  01:52           0       0.179       0.279
  PMP92843GA3          JUNCTION      0.00   109.35     0  01:54           0       0.179       0.307
  PMP92844             JUNCTION      0.00   101.11     0  01:45           0       0.148      -0.106
  PMP92845             JUNCTION      0.00   223.09     0  01:49           0       0.367       0.002
  PMP92846             JUNCTION      0.00    68.31     0  01:45           0      0.0897      -0.004
  PMP92847             JUNCTION      0.00   223.25     0  01:48           0       0.367      -0.001
  PMP92848             JUNCTION      0.00   120.61     0  01:50           0       0.179      -0.164
  PMP92849             JUNCTION      0.00     0.00     0  00:00           0           0       0.000 ltr
  PMP92850             JUNCTION    119.97  1039.25     0  01:55       0.177        2.21       0.030
  PMP92851             JUNCTION      0.00     0.00     0  00:00           0           0       0.000 ltr
  PMP92852             JUNCTION      0.00     0.00     0  00:00           0           0       0.000 ltr
  PMP92853             JUNCTION      0.00   411.90     0  01:53           0       0.765       0.202
  PMP92853GB2          JUNCTION      0.00   400.57     0  01:55           0       0.763       0.095
  PMP92854             JUNCTION      0.00   979.86     0  01:56           0        2.03       0.028
  PMP92855             JUNCTION      0.00   111.02     0  01:47           0       0.179       0.050
[...]
   08/23/2013 01:15:00      0.281     0.000     0.004     1.000
   08/23/2013 01:30:00     40.391     0.000     0.109     1.000
   08/23/2013 01:45:00    201.978     0.000     0.289     1.000
   08/23/2013 02:00:00    158.194     0.000     0.253     1.000
   08/23/2013 02:15:00     51.566     0.000     0.130     1.000
   08/23/2013 02:30:00     21.283     0.000     0.079     1.000
   08/23/2013 02:45:00     10.600     0.000     0.054     1.000
   08/23/2013 03:00:00      5.747     0.000     0.039     1.000
   08/23/2013 03:15:00      3.173     0.000     0.029     1.000
   08/23/2013 03:30:00      1.775     0.000     0.022     1.000
   08/23/2013 03:45:00      0.942     0.000     0.016     1.000
   08/23/2013 04:00:00      0.489     0.000     0.012     1.000
   08/23/2013 04:15:00      0.242     0.000     0.008     1.000
   08/23/2013 04:30:00      0.102     0.000     0.006     1.000
   08/23/2013 04:45:00      0.049     0.000     0.003     1.000
   08/23/2013 05:00:00      0.044     0.000     0.002     1.000
  
  
  <<< Link GB25 >>>
  ----------------------------------------------------------------
                             Flow  Velocity     Depth  Capacity/
  Date        Time            LPS     m/sec    meters   Setting 
  ----------------------------------------------------------------
   08/23/2013 00:15:00      0.000     0.000     0.000     1.000
   08/23/2013 00:30:00      0.000     0.000     0.000     1.000
   08/23/2013 00:45:00      0.000     0.000     0.000     1.000
   08/23/2013 01:00:00      0.000     0.000     0.000     1.000
   08/23/2013 01:15:00      0.001     0.000     0.000     1.000
   08/23/2013 01:30:00      0.024     0.000     0.001     1.000
   08/23/2013 01:45:00    105.705     0.000     0.162     1.000
   08/23/2013 02:00:00    309.897     0.000     0.316     1.000
   08/23/2013 02:15:00    130.185     0.000     0.189     1.000
   08/23/2013 02:30:00     54.501     0.000     0.115     1.000
   08/23/2013 02:45:00     26.896     0.000     0.078     1.000
   08/23/2013 03:00:00     15.174     0.000     0.058     1.000
   08/23/2013 03:15:00      9.083     0.000     0.044     1.000
   08/23/2013 03:30:00      5.583     0.000     0.035     1.000
   08/23/2013 03:45:00      3.571     0.000     0.028     1.000
   08/23/2013 04:00:00      2.288     0.000     0.023     1.000
   08/23/2013 04:15:00      1.503     0.000     0.019     1.000
   08/23/2013 04:30:00      1.020     0.000     0.015     1.000
   08/23/2013 04:45:00      0.697     0.000     0.012     1.000
   08/23/2013 05:00:00      0.700     0.000     0.010     1.000
  
  
  <<< Link GB3 >>>
  ----------------------------------------------------------------
                             Flow  Velocity     Depth  Capacity/
  Date        Time            LPS     m/sec    meters   Setting 
  ----------------------------------------------------------------
   08/23/2013 00:15:00      0.000     0.000     0.000     1.000
   08/23/2013 00:30:00      0.000     0.000     0.000     1.000
   08/23/2013 00:45:00      0.000     0.000     0.000     1.000
   08/23/2013 01:00:00      0.000     0.000     0.000     1.000
   08/23/2013 01:15:00      1.550     0.000     0.021     1.000
   08/23/2013 01:30:00     17.619     0.000     0.105     1.000
   08/23/2013 01:45:00     78.356     0.000     0.265     1.000
   08/23/2013 02:00:00     32.687     0.000     0.157     1.000
   08/23/2013 02:15:00      7.575     0.000     0.066     1.000
   08/23/2013 02:30:00      2.545     0.000     0.036     1.000
   08/23/2013 02:45:00      1.041     0.000     0.023     1.000
   08/23/2013 03:00:00      0.426     0.000     0.015     1.000
   08/23/2013 03:15:00      0.156     0.000     0.009     1.000
   08/23/2013 03:30:00      0.052     0.000     0.006     1.000
   08/23/2013 03:45:00      0.020     0.000     0.004     1.000
   08/23/2013 04:00:00      0.009     0.000     0.002     1.000
   08/23/2013 04:15:00      0.004     0.000     0.001     1.000
   08/23/2013 04:30:00      0.015     0.000     0.001     1.000
   08/23/2013 04:45:00     -0.014     0.000     0.000     1.000
   08/23/2013 05:00:00     -0.008     0.000     0.000     1.000
  
  
  <<< Link GB4 >>>
  ----------------------------------------------------------------
                             Flow  Velocity     Depth  Capacity/
  Date        Time            LPS     m/sec    meters   Setting 
  ----------------------------------------------------------------
   08/23/2013 00:15:00      0.000     0.000     0.000     1.000
   08/23/2013 00:30:00      0.000     0.000     0.000     1.000
   08/23/2013 00:45:00      0.000     0.000     0.000     1.000
   08/23/2013 01:00:00      0.000     0.000     0.000     1.000
   08/23/2013 01:15:00      0.213     0.000     0.004     1.000
   08/23/2013 01:30:00      9.847     0.000     0.051     1.000
   08/23/2013 01:45:00     37.544     0.000     0.113     1.000
   08/23/2013 02:00:00     17.231     0.000     0.073     1.000
   08/23/2013 02:15:00      3.025     0.000     0.028     1.000
   08/23/2013 02:30:00      0.773     0.000     0.014     1.000
   08/23/2013 02:45:00      0.255     0.000     0.008     1.000
   08/23/2013 03:00:00      0.076     0.000     0.004     1.000
   08/23/2013 03:15:00      0.017     0.000     0.002     1.000
   08/23/2013 03:30:00      0.002     0.000     0.000     1.000
   08/23/2013 03:45:00      0.000     0.000     0.000     1.000
   08/23/2013 04:00:00      0.000     0.000     0.000     1.000
   08/23/2013 04:15:00      0.000     0.000     0.000     1.000
   08/23/2013 04:30:00      0.000     0.000     0.000     1.000
   08/23/2013 04:45:00      0.000     0.000     0.000     1.000
   08/23/2013 05:00:00      0.000     0.000     0.000     1.000
  
  
  <<< Link GB5 >>>
  ----------------------------------------------------------------
                             Flow  Velocity     Depth  Capacity/
  Date        Time            LPS     m/sec    meters   Setting 
  ----------------------------------------------------------------
   08/23/2013 00:15:00      0.000     0.000     0.000     1.000
   08/23/2013 00:30:00      0.000     0.000     0.000     1.000
   08/23/2013 00:45:00      0.000     0.000     0.000     1.000
   08/23/2013 01:00:00      0.000     0.000     0.000     1.000
   08/23/2013 01:15:00      2.654     0.000     0.024     1.000
   08/23/2013 01:30:00     31.670     0.000     0.128     1.000
   08/23/2013 01:45:00    147.327     0.000     0.334     1.000
   08/23/2013 02:00:00     86.568     0.000     0.242     1.000
   08/23/2013 02:15:00     31.035     0.000     0.130     1.000
   08/23/2013 02:30:00     14.253     0.000     0.083     1.000
   08/23/2013 02:45:00      7.583     0.000     0.058     1.000
   08/23/2013 03:00:00      4.324     0.000     0.043     1.000
   08/23/2013 03:15:00      2.534     0.000     0.033     1.000
   08/23/2013 03:30:00      1.476     0.000     0.025     1.000
   08/23/2013 03:45:00      0.820     0.000     0.019     1.000
   08/23/2013 04:00:00      0.413     0.000     0.014     1.000
   08/23/2013 04:15:00      0.182     0.000     0.010     1.000
   08/23/2013 04:30:00      0.063     0.000     0.007     1.000
   08/23/2013 04:45:00      0.025     0.000     0.004     1.000
   08/23/2013 05:00:00      0.034     0.000     0.002     1.000
  
  
  <<< Link GB7 >>>
  ----------------------------------------------------------------
                             Flow  Velocity     Depth  Capacity/
  Date        Time            LPS     m/sec    meters   Setting 
  ----------------------------------------------------------------
   08/23/2013 00:15:00      0.000     0.000     0.000     1.000
   08/23/2013 00:30:00      0.000     0.000     0.000     1.000
   08/23/2013 00:45:00      0.000     0.000     0.000     1.000
   08/23/2013 01:00:00      0.000     0.000     0.000     1.000
   08/23/2013 01:15:00      0.005     0.000     0.000     1.000
   08/23/2013 01:30:00     77.810     0.000     0.100     1.000
   08/23/2013 01:45:00    697.659     0.000     0.447     1.000
   08/23/2013 02:00:00   1287.184     0.000     0.696     1.000
   08/23/2013 02:15:00    640.239     0.000     0.435     1.000
   08/23/2013 02:30:00    260.757     0.000     0.238     1.000
   08/23/2013 02:45:00    125.256     0.000     0.147     1.000
   08/23/2013 03:00:00     68.380     0.000     0.099     1.000
   08/23/2013 03:15:00     40.549     0.000     0.071     1.000
   08/23/2013 03:30:00     25.468     0.000     0.052     1.000
   08/23/2013 03:45:00     16.532     0.000     0.040     1.000
   08/23/2013 04:00:00     11.052     0.000     0.031     1.000
   08/23/2013 04:15:00      7.666     0.000     0.024     1.000
   08/23/2013 04:30:00      5.466     0.000     0.020     1.000
   08/23/2013 04:45:00      3.987     0.000     0.016     1.000
   08/23/2013 05:00:00      2.948     0.000     0.013     1.000
  
  
  <<< Link GB8 >>>
  ----------------------------------------------------------------
                             Flow  Velocity     Depth  Capacity/
  Date        Time            LPS     m/sec    meters   Setting 
  ----------------------------------------------------------------
   08/23/2013 00:15:00      0.000     0.000     0.000     1.000
   08/23/2013 00:30:00      0.000     0.000     0.000     1.000
   08/23/2013 00:45:00      0.000     0.000     0.000     1.000
   08/23/2013 01:00:00      0.000     0.000     0.000     1.000
   08/23/2013 01:15:00      0.000     0.000     0.000     1.000
   08/23/2013 01:30:00      0.000     0.000     0.000     1.000
   08/23/2013 01:45:00    431.129     0.000     0.358     1.000
   08/23/2013 02:00:00   1452.825     0.000     0.905     1.000
   08/23/2013 02:15:00    974.586     0.000     0.714     1.000
   08/23/2013 02:30:00    404.710     0.000     0.384     1.000
   08/23/2013 02:45:00    189.207     0.000     0.227     1.000
   08/23/2013 03:00:00    102.542     0.000     0.152     1.000
   08/23/2013 03:15:00     60.754     0.000     0.108     1.000
   08/23/2013 03:30:00     38.395     0.000     0.080     1.000
   08/23/2013 03:45:00     25.343     0.000     0.062     1.000
   08/23/2013 04:00:00     17.239     0.000     0.048     1.000
   08/23/2013 04:15:00     12.100     0.000     0.039     1.000
   08/23/2013 04:30:00      8.714     0.000     0.032     1.000
   08/23/2013 04:45:00      6.411     0.000     0.026     1.000
   08/23/2013 05:00:00      4.829     0.000     0.022     1.000
  
  
  <<< Link GB9 >>>
  ----------------------------------------------------------------
                             Flow  Velocity     Depth  Capacity/
  Date        Time            LPS     m/sec    meters   Setting 
  ----------------------------------------------------------------
   08/23/2013 00:15:00      0.000     0.000     0.000     1.000
   08/23/2013 00:30:00      0.000     0.000     0.000     1.000
   08/23/2013 00:45:00      0.000     0.000     0.000     1.000
   08/23/2013 01:00:00      0.000     0.000     0.000     1.000
   08/23/2013 01:15:00      0.000     0.000     0.000     1.000
   08/23/2013 01:30:00      3.167     0.000     0.011     1.000
   08/23/2013 01:45:00     96.763     0.000     0.163     1.000
   08/23/2013 02:00:00   1270.661     0.000     0.906     1.000
   08/23/2013 02:15:00   1236.475     0.000     1.064     1.000
   08/23/2013 02:30:00    595.049     0.000     0.768     1.000
   08/23/2013 02:45:00    282.398     0.000     0.488     1.000
   08/23/2013 03:00:00    153.572     0.000     0.322     1.000
   08/23/2013 03:15:00     89.368     0.000     0.232     1.000
   08/23/2013 03:30:00     56.634     0.000     0.180     1.000
   08/23/2013 03:45:00     37.988     0.000     0.145     1.000
   08/23/2013 04:00:00     26.420     0.000     0.121     1.000
   08/23/2013 04:15:00     19.079     0.000     0.102     1.000
   08/23/2013 04:30:00     14.050     0.000     0.088     1.000
   08/23/2013 04:45:00     10.584     0.000     0.077     1.000
   08/23/2013 05:00:00      8.127     0.000     0.068     1.000
  
  
  <<< Link GC10 >>>
  ----------------------------------------------------------------
                             Flow  Velocity     Depth  Capacity/
  Date        Time            LPS     m/sec    meters   Setting 
  ----------------------------------------------------------------
   08/23/2013 00:15:00      0.000     0.000     0.000     1.000
   08/23/2013 00:30:00      0.000     0.000     0.000     1.000
   08/23/2013 00:45:00      0.000     0.000     0.000     1.000
   08/23/2013 01:00:00      0.000     0.000     0.000     1.000
   08/23/2013 01:15:00      0.052     0.000     0.002     1.000
   08/23/2013 01:30:00     28.463     0.000     0.163     1.000
   08/23/2013 01:45:00    159.075     0.000     0.400     1.000
   08/23/2013 02:00:00    100.753     0.000     0.400     1.000
   08/23/2013 02:15:00     32.173     0.000     0.246     1.000
   08/23/2013 02:30:00     17.133     0.000     0.153     1.000
   08/23/2013 02:45:00      8.118     0.000     0.107     1.000
   08/23/2013 03:00:00      4.864     0.000     0.086     1.000
   08/23/2013 03:15:00      2.928     0.000     0.069     1.000
   08/23/2013 03:30:00      1.781     0.000     0.056     1.000
   08/23/2013 03:45:00      1.070     0.000     0.045     1.000
   08/23/2013 04:00:00      0.612     0.000     0.036     1.000
   08/23/2013 04:15:00      0.029     0.000     0.030     1.000
   08/23/2013 04:30:00      0.097     0.000     0.024     1.000
   08/23/2013 04:45:00      0.007     0.000     0.020     1.000
   08/23/2013 05:00:00      0.001     0.000     0.017     1.000
  
  
  <<< Link GC20 >>>
  ----------------------------------------------------------------
                             Flow  Velocity     Depth  Capacity/
  Date        Time            LPS     m/sec    meters   Setting 
  ----------------------------------------------------------------
   08/23/2013 00:15:00      0.000     0.000     0.000     1.000
   08/23/2013 00:30:00      0.000     0.000     0.000     1.000
   08/23/2013 00:45:00      0.000     0.000     0.000     1.000
   08/23/2013 01:00:00      0.000     0.000     0.000     1.000
   08/23/2013 01:15:00      2.287     0.000     0.014     1.000
   08/23/2013 01:30:00     25.844     0.000     0.070     1.000
   08/23/2013 01:45:00    114.421     0.000     0.170     1.000
   08/23/2013 02:00:00     59.382     0.000     0.119     1.000
   08/23/2013 02:15:00     18.060     0.000     0.061     1.000
   08/23/2013 02:30:00      7.459     0.000     0.038     1.000
   08/23/2013 02:45:00      3.661     0.000     0.027     1.000
   08/23/2013 03:00:00      1.920     0.000     0.020     1.000
   08/23/2013 03:15:00      1.012     0.000     0.014     1.000
   08/23/2013 03:30:00      0.500     0.000     0.010     1.000
   08/23/2013 03:45:00      0.206     0.000     0.006     1.000
   08/23/2013 04:00:00      0.063     0.000     0.003     1.000
   08/23/2013 04:15:00      0.020     0.000     0.001     1.000
   08/23/2013 04:30:00      0.008     0.000     0.000     1.000
   08/23/2013 04:45:00      0.004     0.000     0.000     1.000
   08/23/2013 05:00:00     -0.028     0.000     0.000     1.000
  
  
  <<< Link GC25 >>>
  ----------------------------------------------------------------
                             Flow  Velocity     Depth  Capacity/
  Date        Time            LPS     m/sec    meters   Setting 
  ----------------------------------------------------------------
   08/23/2013 00:15:00      0.000     0.000     0.000     1.000
   08/23/2013 00:30:00      0.000     0.000     0.000     1.000
   08/23/2013 00:45:00      0.000     0.000     0.000     1.000
   08/23/2013 01:00:00      0.000     0.000     0.000     1.000
   08/23/2013 01:15:00      1.440     0.000     0.012     1.000
   08/23/2013 01:30:00     68.924     0.000     0.155     1.000
   08/23/2013 01:45:00    347.710     0.000     0.389     1.000
   08/23/2013 02:00:00    295.039     0.000     0.366     1.000
   08/23/2013 02:15:00     92.846     0.000     0.191     1.000
   08/23/2013 02:30:00     37.456     0.000     0.117     1.000
   08/23/2013 02:45:00     18.281     0.000     0.081     1.000
   08/23/2013 03:00:00      9.753     0.000     0.060     1.000
   08/23/2013 03:15:00      5.397     0.000     0.045     1.000
   08/23/2013 03:30:00      2.899     0.000     0.034     1.000
   08/23/2013 03:45:00      1.521     0.000     0.026     1.000
   08/23/2013 04:00:00      0.765     0.000     0.019     1.000
   08/23/2013 04:15:00      0.427     0.000     0.015     1.000
   08/23/2013 04:30:00      0.169     0.000     0.011     1.000
   08/23/2013 04:45:00      0.064     0.000     0.008     1.000
   08/23/2013 05:00:00      0.041     0.000     0.005     1.000
  
  
  <<< Link GC3 >>>
  ----------------------------------------------------------------
                             Flow  Velocity     Depth  Capacity/
  Date        Time            LPS     m/sec    meters   Setting 
  ----------------------------------------------------------------
   08/23/2013 00:15:00      0.000     0.000     0.000     1.000
   08/23/2013 00:30:00      0.000     0.000     0.000     1.000
   08/23/2013 00:45:00      0.000     0.000     0.000     1.000
   08/23/2013 01:00:00      0.000     0.000     0.000     1.000
   08/23/2013 01:15:00      0.650     0.000     0.010     1.000
   08/23/2013 01:30:00     14.869     0.000     0.080     1.000
   08/23/2013 01:45:00     61.632     0.000     0.190     1.000
   08/23/2013 02:00:00     31.183     0.000     0.130     1.000
   08/23/2013 02:15:00      6.933     0.000     0.056     1.000
   08/23/2013 02:30:00      2.214     0.000     0.030     1.000
   08/23/2013 02:45:00      0.880     0.000     0.019     1.000
   08/23/2013 03:00:00      0.356     0.000     0.013     1.000
   08/23/2013 03:15:00      0.136     0.000     0.009     1.000
   08/23/2013 03:30:00      0.051     0.000     0.005     1.000
   08/23/2013 03:45:00      0.019     0.000     0.003     1.000
   08/23/2013 04:00:00      0.007     0.000     0.002     1.000
   08/23/2013 04:15:00      0.016     0.000     0.001     1.000
   08/23/2013 04:30:00      0.001     0.000     0.000     1.000
   08/23/2013 04:45:00     -0.006     0.000     0.000     1.000
   08/23/2013 05:00:00     -0.000     0.000     0.000     1.000
  
  
  <<< Link GD3 >>>
  ----------------------------------------------------------------
                             Flow  Velocity     Depth  Capacity/
  Date        Time            LPS     m/sec    meters   Setting 
  ----------------------------------------------------------------
   08/23/2013 00:15:00      0.000     0.000     0.000     1.000
   08/23/2013 00:30:00      0.000     0.000     0.000     1.000
   08/23/2013 00:45:00      0.000     0.000     0.000     1.000
   08/23/2013 01:00:00      0.000     0.000     0.000     1.000
   08/23/2013 01:15:00      0.076     0.000     0.002     1.000
   08/23/2013 01:30:00     27.436     0.000     0.077     1.000
   08/23/2013 01:45:00    137.702     0.000     0.197     1.000
   08/23/2013 02:00:00    142.686     0.000     0.208     1.000
   08/23/2013 02:15:00     47.863     0.000     0.114     1.000
   08/23/2013 02:30:00     20.621     0.000     0.073     1.000
   08/23/2013 02:45:00     10.664     0.000     0.052     1.000
   08/23/2013 03:00:00      6.025     0.000     0.039     1.000
   08/23/2013 03:15:00      3.581     0.000     0.031     1.000
   08/23/2013 03:30:00      2.197     0.000     0.024     1.000
   08/23/2013 03:45:00      1.354     0.000     0.020     1.000
   08/23/2013 04:00:00      0.813     0.000     0.015     1.000
   08/23/2013 04:15:00      0.452     0.000     0.011     1.000
   08/23/2013 04:30:00      0.225     0.000     0.008     1.000
   08/23/2013 04:45:00      0.069     0.000     0.005     1.000
   08/23/2013 05:00:00      0.035     0.000     0.003     1.000
  

  Analysis begun on:  Mon Jul 10 12:09:38 2017
  Analysis ended on:  Mon Jul 10 12:09:59 2017
  Total elapsed time: 00:00:21