
  EPA STORM WATER MANAGEMENT MODEL - VERSION 5.1 (Build 5.1.006)
  --------------------------------------------------------------

  
  *********************************************************
  NOTE: The summary statistics displayed in this report are
  based on results found at every computational time step,  
  not just on results from each reporting time step.
  *********************************************************
  
  ****************
  Analysis Options
  ****************
  Flow Units ............... CMS
  Process Models:
    Rainfall/Runoff ........ YES
    RDII ................... NO
    Snowmelt ............... NO
    Groundwater ............ NO
    Flow Routing ........... YES
    Ponding Allowed ........ NO
    Water Quality .......... NO
  Infiltration Method ...... HORTON
  Flow Routing Method ...... DYNWAVE
  Starting Date ............ MAY-03-2014 00:00:00
  Ending Date .............. MAY-03-2014 18:00:00
  Antecedent Dry Days ...... 0.0
  Report Time Step ......... 00:15:00
  Wet Time Step ............ 00:05:00
  Dry Time Step ............ 01:00:00
  Routing Time Step ........ 30.00 sec
  Variable Time Step ....... YES
  Maximum Trials ........... 8
  Head Tolerance ........... 0.005000 m
  
  
  **************************        Volume         Depth
  Runoff Quantity Continuity     hectare-m            mm
  **************************     ---------       -------
  Total Precipitation ......         9.291        30.644
  Evaporation Loss .........         0.000         0.000
  Infiltration Loss ........         1.898         6.259
  Surface Runoff ...........         7.153        23.591
  Final Surface Storage ....         0.249         0.821
  Continuity Error (%) .....        -0.089
  
  
  **************************        Volume        Volume
  Flow Routing Continuity        hectare-m      10^6 ltr
  **************************     ---------     ---------
  Dry Weather Inflow .......         0.000         0.000
  Wet Weather Inflow .......         7.152        71.516
  Groundwater Inflow .......         0.000         0.000
  RDII Inflow ..............         0.000         0.000
  External Inflow ..........        12.959       129.587
  External Outflow .........        18.808       188.084
  Internal Outflow .........         0.037         0.369
  Evaporation Loss .........         0.000         0.000
  Seepage Loss .............         0.000         0.000
  Initial Stored Volume ....         0.000         0.001
  Final Stored Volume ......         1.210        12.100
  Continuity Error (%) .....         0.274
  
  
  *************************
  Highest Continuity Errors
  *************************
  Node N-13 (2.35%)
  Node N-15 (1.43%)
  Node V-2 (-1.41%)
  
  
  ***************************
  Time-Step Critical Elements
  ***************************
  None
  
  
  ********************************
  Highest Flow Instability Indexes
  ********************************
  Link C-10 (29)
  Link C-9 (11)
  
  
  *************************
  Routing Time Step Summary
  *************************
  Minimum Time Step           :    30.00 sec
  Average Time Step           :    29.99 sec
  Maximum Time Step           :    30.00 sec
  Percent in Steady State     :     0.00
  Average Iterations per Step :     2.01
  Percent Not Converging      :     0.05
  
  
  ***************************
  Subcatchment Runoff Summary
  ***************************
  
  --------------------------------------------------------------------------------------------------------
                            Total      Total      Total      Total      Total       Total     Peak  Runoff
                           Precip      Runon       Evap      Infil     Runoff      Runoff   Runoff   Coeff
  Subcatchment                 mm         mm         mm         mm         mm    10^6 ltr      CMS
  --------------------------------------------------------------------------------------------------------
  C-2                       26.96       0.00       0.00      13.82      11.77       11.53     2.48   0.437
  C-3                       40.08       0.00       0.00       5.08      34.55       27.71     5.63   0.862
  C-4                       26.96       0.00       0.00       1.02      25.34       30.40     5.66   0.940
  C-5                       40.08       0.00       0.00       2.56      37.59        1.88     0.60   0.938
  
  
  ******************
  Node Depth Summary
  ******************
  
  ---------------------------------------------------------------------
                                 Average  Maximum  Maximum  Time of Max
                                   Depth    Depth      HGL   Occurrence
  Node                 Type       Meters   Meters   Meters  days hr:min
  ---------------------------------------------------------------------
  N-5                  JUNCTION     0.24     0.55  2500.55     0  05:02
  N-6                  JUNCTION     0.32     1.21  2500.20     0  05:22
  N-7                  JUNCTION     0.61     1.55  2500.19     0  05:23
  N-9                  JUNCTION     0.69     1.70  2499.70     0  05:41
  N-13                 JUNCTION     0.53     1.33  2499.33     0  05:32
  N-14                 JUNCTION     0.55     1.35  2499.35     0  05:45
  N-15                 JUNCTION     0.57     1.48  2499.48     0  05:43
  DES-1                OUTFALL      0.57     0.85  2492.85     0  07:24
  DES-2                OUTFALL      0.53     0.65  2494.28     0  05:36
  DES-3                OUTFALL      0.52     0.70  2493.83     0  06:04
  V-1                  STORAGE      1.02     2.99  2495.99     0  07:22
  V-2                  STORAGE      1.61     4.00  2498.28     0  06:18
  V-3                  STORAGE      1.59     4.38  2498.66     0  06:49
  
  
  *******************
  Node Inflow Summary
  *******************
  
  -------------------------------------------------------------------------------------------------
                                  Maximum  Maximum                  Lateral       Total        Flow
                                  Lateral    Total  Time of Max      Inflow      Inflow     Balance
                                   Inflow   Inflow   Occurrence      Volume      Volume       Error
  Node                 Type           CMS      CMS  days hr:min    10^6 ltr    10^6 ltr     Percent
  -------------------------------------------------------------------------------------------------
  N-5                  JUNCTION    11.226   11.226     0  04:55         190         190       0.727
  N-6                  JUNCTION     2.484   13.352     0  04:59        11.5         200       0.993
  N-7                  JUNCTION     0.000   10.951     0  05:14           0         198       0.780
  N-9                  JUNCTION     0.000   10.735     0  05:22           0         196       0.319
  N-13                 JUNCTION     0.000    3.443     0  05:22           0        57.7       2.406
  N-14                 JUNCTION     0.000    4.549     0  05:38           0        79.4       0.618
  N-15                 JUNCTION     0.000    3.898     0  05:37           0        58.5       1.448
  DES-1                OUTFALL      0.000    2.407     0  07:24           0          76       0.000
  DES-2                OUTFALL      0.000    1.379     0  06:03           0        55.9       0.000
  DES-3                OUTFALL      0.000    1.455     0  06:04           0        56.2       0.000
  V-1                  STORAGE      0.000    4.233     0  05:46           0          79       0.318
  V-2                  STORAGE      0.000    3.353     0  05:33           0        56.3      -1.394
  V-3                  STORAGE      0.000    3.561     0  05:43           0        57.7       0.858
  
  
  **********************
  Node Surcharge Summary
  **********************
  
  Surcharging occurs when water rises above the top of the highest conduit.
  ---------------------------------------------------------------------
                                               Max. Height   Min. Depth
                                   Hours       Above Crown    Below Rim
  Node                 Type      Surcharged         Meters       Meters
  ---------------------------------------------------------------------
  V-2                  STORAGE         0.75          0.000        0.000
  
  
  *********************
  Node Flooding Summary
  *********************
  
  Flooding refers to all water that overflows a node, whether it ponds or not.
  --------------------------------------------------------------------------
                                                             Total   Maximum
                                 Maximum   Time of Max       Flood    Ponded
                        Hours       Rate    Occurrence      Volume     Depth
  Node                 Flooded       CMS   days hr:min    10^6 ltr    Meters
  --------------------------------------------------------------------------
  V-2                     0.73     0.275      0  06:18       0.369     0.000
  
  
  **********************
  Storage Volume Summary
  **********************
  
  --------------------------------------------------------------------------------------------------
                         Average     Avg  Evap Infil       Maximum     Max    Time of Max    Maximum
                          Volume    Pcnt  Pcnt  Pcnt        Volume    Pcnt     Occurrence    Outflow
  Storage Unit           1000 m3    Full  Loss  Loss       1000 m3    Full    days hr:min        CMS
  --------------------------------------------------------------------------------------------------
  V-1                      5.628      20     0     0        16.461      60       0  07:22      2.407
  V-2                      2.901      40     0     0         7.200     100       0  06:18      1.379
  V-3                      3.492      35     0     0         9.633      97       0  06:49      1.455
  
  
  ***********************
  Outfall Loading Summary
  ***********************
  
  -----------------------------------------------------------
                         Flow       Avg       Max       Total
                         Freq      Flow      Flow      Volume
  Outfall Node           Pcnt       CMS       CMS    10^6 ltr
  -----------------------------------------------------------
  DES-1                 95.60     1.227     2.407      76.036
  DES-2                 95.79     0.900     1.379      55.865
  DES-3                 95.84     0.904     1.455      56.181
  -----------------------------------------------------------
  System                95.74     3.031     5.137     188.083
  
  
  ********************
  Link Flow Summary
  ********************
  
  -----------------------------------------------------------------------------
                                 Maximum  Time of Max   Maximum    Max/    Max/
                                  |Flow|   Occurrence   |Veloc|    Full    Full
  Link                 Type          CMS  days hr:min     m/sec    Flow   Depth
  -----------------------------------------------------------------------------
  C-1                  CONDUIT    11.022     0  05:02      1.29    0.04    0.20
  C-2                  CONDUIT    10.951     0  05:14      0.71    0.04    0.32
  C-5                  CONDUIT     4.233     0  05:46      2.78    1.07    0.81
  C-6                  CONDUIT     3.353     0  05:33      2.34    1.05    0.76
  C-7                  CONDUIT     3.561     0  05:43      2.30    1.23    0.82
  C-8                  CONDUIT     2.407     0  07:24      3.82    1.78    0.97
  C-9                  CONDUIT     1.379     0  06:03      4.18    1.88    1.00
  C-10                 CONDUIT     1.455     0  06:04      3.81    1.71    1.00
  C-11                 CONDUIT    10.735     0  05:22      2.33    0.91    0.79
  R-4                  ORIFICE     4.549     0  05:38                      0.85
  R-5                  ORIFICE     3.443     0  05:22                      0.78
  R-6                  ORIFICE     3.898     0  05:37                      0.85
  
  
  ***************************
  Flow Classification Summary
  ***************************
  
  -------------------------------------------------------------------------------------
                      Adjusted    ---------- Fraction of Time in Flow Class ---------- 
                       /Actual         Up    Down  Sub   Sup   Up    Down  Norm  Inlet 
  Conduit               Length    Dry  Dry   Dry   Crit  Crit  Crit  Crit  Ltd   Ctrl  
  -------------------------------------------------------------------------------------
  C-1                     1.00   0.00  0.00  0.00  1.00  0.00  0.00  0.00  0.36  0.00
  C-2                     1.00   0.00  0.00  0.00  1.00  0.00  0.00  0.00  0.59  0.00
  C-5                     1.00   0.02  0.00  0.00  0.00  0.00  0.00  0.98  0.00  0.00
  C-6                     1.00   0.02  0.00  0.00  0.25  0.00  0.00  0.72  0.24  0.00
  C-7                     1.00   0.02  0.00  0.00  0.20  0.00  0.00  0.77  0.11  0.00
  C-8                     1.00   0.04  0.00  0.00  0.44  0.52  0.00  0.00  0.01  0.00
  C-9                     1.00   0.03  0.00  0.00  0.58  0.38  0.00  0.00  0.00  0.00
  C-10                    1.00   0.03  0.00  0.00  0.52  0.45  0.00  0.00  0.00  0.00
  C-11                    1.00   0.01  0.00  0.00  0.99  0.00  0.00  0.00  0.79  0.00
  
  
  *************************
  Conduit Surcharge Summary
  *************************
  
  ----------------------------------------------------------------------------
                                                           Hours        Hours 
                         --------- Hours Full --------   Above Full   Capacity
  Conduit                Both Ends  Upstream  Dnstream   Normal Flow   Limited
  ----------------------------------------------------------------------------
  C-5                         0.01      0.01      0.01      0.64         0.01
  C-6                         0.01      0.01      0.01      0.28         0.01
  C-7                         0.01      0.01      0.01      0.86         0.01
  C-8                         0.01      0.01      0.01      6.94         0.01
  C-9                         2.16      2.16      2.79     10.37         2.16
  C-10                        2.71      2.71      4.44      9.11         2.71
  
  
  ********************
  Subcatchment Results
  ********************
  
  <<< Subcatchment C-2 >>>
  ---------------------------------------------------
  Date        Time        Precip.    Losses    Runoff
                            mm/hr     mm/hr       CMS
  ---------------------------------------------------
  MAY-03-2014 00:15:00      0.000     0.000    0.0000
  MAY-03-2014 00:30:00      0.000     0.000    0.0000
  MAY-03-2014 00:45:00      0.000     0.000    0.0000
  MAY-03-2014 01:00:00      0.000     0.000    0.0000
  MAY-03-2014 01:15:00      0.000     0.000    0.0000
  MAY-03-2014 01:30:00      0.000     0.000    0.0000
  MAY-03-2014 01:45:00      0.000     0.000    0.0000
  MAY-03-2014 02:00:00      0.000     0.000    0.0000
  MAY-03-2014 02:15:00      0.000     0.000    0.0000
  MAY-03-2014 02:30:00      0.000     0.000    0.0000
  MAY-03-2014 02:45:00      0.000     0.000    0.0000
  MAY-03-2014 03:00:00      0.000     0.000    0.0000
  MAY-03-2014 03:15:00      0.000     0.000    0.0000
  MAY-03-2014 03:30:00      0.000     0.000    0.0000
  MAY-03-2014 03:45:00      0.000     0.000    0.0000
  MAY-03-2014 04:00:00      0.000     0.000    0.0000
  MAY-03-2014 04:15:00      9.900     5.236    0.0397
  MAY-03-2014 04:30:00     25.900     3.479    0.4161
  MAY-03-2014 04:45:00     43.000     2.413    1.4057
  MAY-03-2014 05:00:00     24.000     1.767    2.3479
  MAY-03-2014 05:15:00      4.800     1.374    1.7624
  MAY-03-2014 05:30:00      0.000     1.137    1.0978
  MAY-03-2014 05:45:00      0.000     0.992    0.7515
  MAY-03-2014 06:00:00      0.000     0.905    0.5838
  MAY-03-2014 06:15:00      0.000     0.852    0.4840
  MAY-03-2014 06:30:00      0.000     0.820    0.4157
  MAY-03-2014 06:45:00      0.000     0.800    0.3647
  MAY-03-2014 07:00:00      0.000     0.788    0.3240
  MAY-03-2014 07:15:00      0.000     0.781    0.2902
  MAY-03-2014 07:30:00      0.000     0.777    0.2612
  MAY-03-2014 07:45:00      0.000     0.774    0.2359
  MAY-03-2014 08:00:00      0.000     0.772    0.2136
  MAY-03-2014 08:15:00      0.000     0.771    0.1935
  MAY-03-2014 08:30:00      0.000     0.771    0.1754
  MAY-03-2014 08:45:00      0.000     0.771    0.1589
  MAY-03-2014 09:00:00      0.000     0.770    0.1439
  MAY-03-2014 09:15:00      0.000     0.770    0.1302
  MAY-03-2014 09:30:00      0.000     0.770    0.1176
  MAY-03-2014 09:45:00      0.000     0.770    0.1060
  MAY-03-2014 10:00:00      0.000     0.770    0.0953
  MAY-03-2014 10:15:00      0.000     0.770    0.0854
  MAY-03-2014 10:30:00      0.000     0.770    0.0763
  MAY-03-2014 10:45:00      0.000     0.770    0.0679
  MAY-03-2014 11:00:00      0.000     0.770    0.0601
  MAY-03-2014 11:15:00      0.000     0.770    0.0530
  MAY-03-2014 11:30:00      0.000     0.770    0.0463
  MAY-03-2014 11:45:00      0.000     0.770    0.0402
  MAY-03-2014 12:00:00      0.000     0.770    0.0346
  MAY-03-2014 12:15:00      0.000     0.770    0.0295
  MAY-03-2014 12:30:00      0.000     0.770    0.0248
  MAY-03-2014 12:45:00      0.000     0.770    0.0205
  MAY-03-2014 13:00:00      0.000     0.770    0.0167
  MAY-03-2014 13:15:00      0.000     0.770    0.0132
  MAY-03-2014 13:30:00      0.000     0.770    0.0102
  MAY-03-2014 13:45:00      0.000     0.770    0.0075
  MAY-03-2014 14:00:00      0.000     0.770    0.0052
  MAY-03-2014 14:15:00      0.000     0.770    0.0034
  MAY-03-2014 14:30:00      0.000     0.770    0.0020
  MAY-03-2014 14:45:00      0.000     0.770    0.0012
  MAY-03-2014 15:00:00      0.000     0.770    0.0010
  MAY-03-2014 15:15:00      0.000     0.770    0.0009
  MAY-03-2014 15:30:00      0.000     0.770    0.0009
  MAY-03-2014 15:45:00      0.000     0.770    0.0008
  MAY-03-2014 16:00:00      0.000     0.770    0.0008
  MAY-03-2014 16:15:00      0.000     0.770    0.0008
  MAY-03-2014 16:30:00      0.000     0.770    0.0007
  MAY-03-2014 16:45:00      0.000     0.770    0.0007
  MAY-03-2014 17:00:00      0.000     0.770    0.0006
  MAY-03-2014 17:15:00      0.000     0.770    0.0006
  MAY-03-2014 17:30:00      0.000     0.770    0.0006
  MAY-03-2014 17:45:00      0.000     0.770    0.0006
  MAY-03-2014 18:00:00      0.000     0.770    0.0005
  
  
  <<< Subcatchment C-3 >>>
  ---------------------------------------------------
  Date        Time        Precip.    Losses    Runoff
                            mm/hr     mm/hr       CMS
  ---------------------------------------------------
  MAY-03-2014 00:15:00      0.000     0.000    0.0000
  MAY-03-2014 00:30:00      0.000     0.000    0.0000
  MAY-03-2014 00:45:00      0.000     0.000    0.0000
  MAY-03-2014 01:00:00      0.000     0.000    0.0000
  MAY-03-2014 01:15:00      0.000     0.000    0.0000
  MAY-03-2014 01:30:00      0.000     0.000    0.0000
  MAY-03-2014 01:45:00      0.000     0.000    0.0000
  MAY-03-2014 02:00:00      0.000     0.000    0.0000
  MAY-03-2014 02:15:00      0.000     0.000    0.0000
  MAY-03-2014 02:30:00      0.000     0.000    0.0000
  MAY-03-2014 02:45:00      0.000     0.000    0.0000
  MAY-03-2014 03:00:00      0.000     0.000    0.0000
  MAY-03-2014 03:15:00      0.000     0.000    0.0000
  MAY-03-2014 03:30:00      0.000     0.000    0.0000
  MAY-03-2014 03:45:00     15.500     1.801    0.0539
  MAY-03-2014 04:00:00     43.500     1.201    0.6505
  MAY-03-2014 04:15:00     53.800     0.836    2.9236
  MAY-03-2014 04:30:00     40.300     0.615    5.2425
  MAY-03-2014 04:45:00      6.900     0.482    5.0946
  MAY-03-2014 05:00:00      2.300     0.400    3.5440
  MAY-03-2014 05:15:00      0.000     0.351    2.5146
  MAY-03-2014 05:30:00      0.000     0.321    1.8447
  MAY-03-2014 05:45:00      0.000     0.303    1.4059
  MAY-03-2014 06:00:00      0.000     0.292    1.1031
  MAY-03-2014 06:15:00      0.000     0.285    0.8855
  MAY-03-2014 06:30:00      0.000     0.281    0.7239
  MAY-03-2014 06:45:00      0.000     0.279    0.6006
  MAY-03-2014 07:00:00      0.000     0.277    0.5044
  MAY-03-2014 07:15:00      0.000     0.276    0.4279
  MAY-03-2014 07:30:00      0.000     0.276    0.3662
  MAY-03-2014 07:45:00      0.000     0.276    0.3157
  MAY-03-2014 08:00:00      0.000     0.275    0.2738
  MAY-03-2014 08:15:00      0.000     0.275    0.2387
  MAY-03-2014 08:30:00      0.000     0.275    0.2091
  MAY-03-2014 08:45:00      0.000     0.275    0.1838
  MAY-03-2014 09:00:00      0.000     0.275    0.1622
  MAY-03-2014 09:15:00      0.000     0.275    0.1435
  MAY-03-2014 09:30:00      0.000     0.275    0.1272
  MAY-03-2014 09:45:00      0.000     0.275    0.1130
  MAY-03-2014 10:00:00      0.000     0.275    0.1006
  MAY-03-2014 10:15:00      0.000     0.275    0.0897
  MAY-03-2014 10:30:00      0.000     0.275    0.0801
  MAY-03-2014 10:45:00      0.000     0.275    0.0715
  MAY-03-2014 11:00:00      0.000     0.275    0.0640
  MAY-03-2014 11:15:00      0.000     0.275    0.0573
  MAY-03-2014 11:30:00      0.000     0.275    0.0514
  MAY-03-2014 11:45:00      0.000     0.275    0.0461
  MAY-03-2014 12:00:00      0.000     0.275    0.0414
  MAY-03-2014 12:15:00      0.000     0.275    0.0373
  MAY-03-2014 12:30:00      0.000     0.275    0.0338
  MAY-03-2014 12:45:00      0.000     0.275    0.0307
  MAY-03-2014 13:00:00      0.000     0.275    0.0281
  MAY-03-2014 13:15:00      0.000     0.275    0.0261
  MAY-03-2014 13:30:00      0.000     0.275    0.0245
  MAY-03-2014 13:45:00      0.000     0.275    0.0230
  MAY-03-2014 14:00:00      0.000     0.275    0.0216
  MAY-03-2014 14:15:00      0.000     0.275    0.0204
  MAY-03-2014 14:30:00      0.000     0.275    0.0193
  MAY-03-2014 14:45:00      0.000     0.275    0.0182
  MAY-03-2014 15:00:00      0.000     0.275    0.0172
  MAY-03-2014 15:15:00      0.000     0.275    0.0163
  MAY-03-2014 15:30:00      0.000     0.275    0.0155
  MAY-03-2014 15:45:00      0.000     0.275    0.0147
  MAY-03-2014 16:00:00      0.000     0.275    0.0140
  MAY-03-2014 16:15:00      0.000     0.275    0.0133
  MAY-03-2014 16:30:00      0.000     0.275    0.0127
  MAY-03-2014 16:45:00      0.000     0.275    0.0121
  MAY-03-2014 17:00:00      0.000     0.275    0.0115
  MAY-03-2014 17:15:00      0.000     0.275    0.0110
  MAY-03-2014 17:30:00      0.000     0.275    0.0105
  MAY-03-2014 17:45:00      0.000     0.275    0.0101
  MAY-03-2014 18:00:00      0.000     0.275    0.0096
  
  
  <<< Subcatchment C-4 >>>
  ---------------------------------------------------
  Date        Time        Precip.    Losses    Runoff
                            mm/hr     mm/hr       CMS
  ---------------------------------------------------
  MAY-03-2014 00:15:00      0.000     0.000    0.0000
  MAY-03-2014 00:30:00      0.000     0.000    0.0000
  MAY-03-2014 00:45:00      0.000     0.000    0.0000
  MAY-03-2014 01:00:00      0.000     0.000    0.0000
  MAY-03-2014 01:15:00      0.000     0.000    0.0000
  MAY-03-2014 01:30:00      0.000     0.000    0.0000
  MAY-03-2014 01:45:00      0.000     0.000    0.0000
  MAY-03-2014 02:00:00      0.000     0.000    0.0000
  MAY-03-2014 02:15:00      0.000     0.000    0.0000
  MAY-03-2014 02:30:00      0.000     0.000    0.0000
  MAY-03-2014 02:45:00      0.000     0.000    0.0000
  MAY-03-2014 03:00:00      0.000     0.000    0.0000
  MAY-03-2014 03:15:00      0.000     0.000    0.0000
  MAY-03-2014 03:30:00      0.000     0.000    0.0000
  MAY-03-2014 03:45:00      0.000     0.000    0.0000
  MAY-03-2014 04:00:00      0.000     0.000    0.0000
  MAY-03-2014 04:15:00      9.900     0.680    0.0429
  MAY-03-2014 04:30:00     25.900     0.452    0.5558
  MAY-03-2014 04:45:00     43.000     0.313    2.4692
  MAY-03-2014 05:00:00     24.000     0.229    5.3506
  MAY-03-2014 05:15:00      4.800     0.179    5.2627
  MAY-03-2014 05:30:00      0.000     0.148    3.9353
  MAY-03-2014 05:45:00      0.000     0.129    2.8528
  MAY-03-2014 06:00:00      0.000     0.118    2.1441
  MAY-03-2014 06:15:00      0.000     0.111    1.6581
  MAY-03-2014 06:30:00      0.000     0.106    1.3122
  MAY-03-2014 06:45:00      0.000     0.104    1.0586
  MAY-03-2014 07:00:00      0.000     0.102    0.8677
  MAY-03-2014 07:15:00      0.000     0.101    0.7210
  MAY-03-2014 07:30:00      0.000     0.101    0.6062
  MAY-03-2014 07:45:00      0.000     0.101    0.5149
  MAY-03-2014 08:00:00      0.000     0.100    0.4412
  MAY-03-2014 08:15:00      0.000     0.100    0.3811
  MAY-03-2014 08:30:00      0.000     0.100    0.3315
  MAY-03-2014 08:45:00      0.000     0.100    0.2902
  MAY-03-2014 09:00:00      0.000     0.100    0.2555
  MAY-03-2014 09:15:00      0.000     0.100    0.2262
  MAY-03-2014 09:30:00      0.000     0.100    0.2013
  MAY-03-2014 09:45:00      0.000     0.100    0.1801
  MAY-03-2014 10:00:00      0.000     0.100    0.1619
  MAY-03-2014 10:15:00      0.000     0.100    0.1465
  MAY-03-2014 10:30:00      0.000     0.000    0.1334
  MAY-03-2014 10:45:00      0.000     0.000    0.1219
  MAY-03-2014 11:00:00      0.000     0.000    0.1118
  MAY-03-2014 11:15:00      0.000     0.000    0.1028
  MAY-03-2014 11:30:00      0.000     0.000    0.0948
  MAY-03-2014 11:45:00      0.000     0.000    0.0876
  MAY-03-2014 12:00:00      0.000     0.000    0.0812
  MAY-03-2014 12:15:00      0.000     0.000    0.0754
  MAY-03-2014 12:30:00      0.000     0.000    0.0701
  MAY-03-2014 12:45:00      0.000     0.000    0.0654
  MAY-03-2014 13:00:00      0.000     0.000    0.0611
  MAY-03-2014 13:15:00      0.000     0.000    0.0572
  MAY-03-2014 13:30:00      0.000     0.000    0.0536
  MAY-03-2014 13:45:00      0.000     0.000    0.0504
  MAY-03-2014 14:00:00      0.000     0.000    0.0474
  MAY-03-2014 14:15:00      0.000     0.000    0.0446
  MAY-03-2014 14:30:00      0.000     0.000    0.0421
  MAY-03-2014 14:45:00      0.000     0.000    0.0397
  MAY-03-2014 15:00:00      0.000     0.000    0.0376
  MAY-03-2014 15:15:00      0.000     0.000    0.0356
  MAY-03-2014 15:30:00      0.000     0.000    0.0337
  MAY-03-2014 15:45:00      0.000     0.000    0.0320
  MAY-03-2014 16:00:00      0.000     0.000    0.0304
  MAY-03-2014 16:15:00      0.000     0.000    0.0289
  MAY-03-2014 16:30:00      0.000     0.000    0.0275
  MAY-03-2014 16:45:00      0.000     0.000    0.0262
  MAY-03-2014 17:00:00      0.000     0.000    0.0250
  MAY-03-2014 17:15:00      0.000     0.000    0.0239
  MAY-03-2014 17:30:00      0.000     0.000    0.0228
  MAY-03-2014 17:45:00      0.000     0.000    0.0218
  MAY-03-2014 18:00:00      0.000     0.000    0.0209
  
  
  <<< Subcatchment C-5 >>>
  ---------------------------------------------------
  Date        Time        Precip.    Losses    Runoff
                            mm/hr     mm/hr       CMS
  ---------------------------------------------------
  MAY-03-2014 00:15:00      0.000     0.000    0.0000
  MAY-03-2014 00:30:00      0.000     0.000    0.0000
  MAY-03-2014 00:45:00      0.000     0.000    0.0000
  MAY-03-2014 01:00:00      0.000     0.000    0.0000
  MAY-03-2014 01:15:00      0.000     0.000    0.0000
  MAY-03-2014 01:30:00      0.000     0.000    0.0000
  MAY-03-2014 01:45:00      0.000     0.000    0.0000
  MAY-03-2014 02:00:00      0.000     0.000    0.0000
  MAY-03-2014 02:15:00      0.000     0.000    0.0000
  MAY-03-2014 02:30:00      0.000     0.000    0.0000
  MAY-03-2014 02:45:00      0.000     0.000    0.0000
  MAY-03-2014 03:00:00      0.000     0.000    0.0000
  MAY-03-2014 03:15:00      0.000     0.000    0.0000
  MAY-03-2014 03:30:00      0.000     0.000    0.0000
  MAY-03-2014 03:45:00     15.500     1.194    0.0407
  MAY-03-2014 04:00:00     43.500     0.676    0.1782
  MAY-03-2014 04:15:00     53.800     0.486    0.4748
  MAY-03-2014 04:30:00     40.300     0.416    0.5674
  MAY-03-2014 04:45:00      6.900     0.390    0.3726
  MAY-03-2014 05:00:00      2.300     0.381    0.1685
  MAY-03-2014 05:15:00      0.000     0.377    0.0931
  MAY-03-2014 05:30:00      0.000     0.376    0.0556
  MAY-03-2014 05:45:00      0.000     0.375    0.0359
  MAY-03-2014 06:00:00      0.000     0.375    0.0243
  MAY-03-2014 06:15:00      0.000     0.375    0.0170
  MAY-03-2014 06:30:00      0.000     0.375    0.0121
  MAY-03-2014 06:45:00      0.000     0.375    0.0087
  MAY-03-2014 07:00:00      0.000     0.375    0.0063
  MAY-03-2014 07:15:00      0.000     0.375    0.0045
  MAY-03-2014 07:30:00      0.000     0.375    0.0032
  MAY-03-2014 07:45:00      0.000     0.375    0.0022
  MAY-03-2014 08:00:00      0.000     0.375    0.0014
  MAY-03-2014 08:15:00      0.000     0.375    0.0009
  MAY-03-2014 08:30:00      0.000     0.375    0.0005
  MAY-03-2014 08:45:00      0.000     0.375    0.0002
  MAY-03-2014 09:00:00      0.000     0.375    0.0000
  MAY-03-2014 09:15:00      0.000     0.000    0.0000
  MAY-03-2014 09:30:00      0.000     0.000    0.0000
  MAY-03-2014 09:45:00      0.000     0.000    0.0000
  MAY-03-2014 10:00:00      0.000     0.000    0.0000
  MAY-03-2014 10:15:00      0.000     0.000    0.0000
  MAY-03-2014 10:30:00      0.000     0.000    0.0000
  MAY-03-2014 10:45:00      0.000     0.000    0.0000
  MAY-03-2014 11:00:00      0.000     0.000    0.0000
  MAY-03-2014 11:15:00      0.000     0.000    0.0000
  MAY-03-2014 11:30:00      0.000     0.000    0.0000
  MAY-03-2014 11:45:00      0.000     0.000    0.0000
  MAY-03-2014 12:00:00      0.000     0.000    0.0000
  MAY-03-2014 12:15:00      0.000     0.000    0.0000
  MAY-03-2014 12:30:00      0.000     0.000    0.0000
  MAY-03-2014 12:45:00      0.000     0.000    0.0000
  MAY-03-2014 13:00:00      0.000     0.000    0.0000
  MAY-03-2014 13:15:00      0.000     0.000    0.0000
  MAY-03-2014 13:30:00      0.000     0.000    0.0000
  MAY-03-2014 13:45:00      0.000     0.000    0.0000
  MAY-03-2014 14:00:00      0.000     0.000    0.0000
  MAY-03-2014 14:15:00      0.000     0.000    0.0000
  MAY-03-2014 14:30:00      0.000     0.000    0.0000
  MAY-03-2014 14:45:00      0.000     0.000    0.0000
  MAY-03-2014 15:00:00      0.000     0.000    0.0000
  MAY-03-2014 15:15:00      0.000     0.000    0.0000
  MAY-03-2014 15:30:00      0.000     0.000    0.0000
  MAY-03-2014 15:45:00      0.000     0.000    0.0000
  MAY-03-2014 16:00:00      0.000     0.000    0.0000
  MAY-03-2014 16:15:00      0.000     0.000    0.0000
  MAY-03-2014 16:30:00      0.000     0.000    0.0000
  MAY-03-2014 16:45:00      0.000     0.000    0.0000
  MAY-03-2014 17:00:00      0.000     0.000    0.0000
  MAY-03-2014 17:15:00      0.000     0.000    0.0000
  MAY-03-2014 17:30:00      0.000     0.000    0.0000
  MAY-03-2014 17:45:00      0.000     0.000    0.0000
  MAY-03-2014 18:00:00      0.000     0.000    0.0000
  
  
  ************
  Node Results
  ************
  
  <<< Node N-5 >>>
  ----------------------------------------------------------------
                           Inflow  Flooding     Depth      Head
  Date        Time            CMS       CMS    meters    meters
  ----------------------------------------------------------------
  MAY-03-2014 00:15:00      2.000     0.000     0.206  2500.206
  MAY-03-2014 00:30:00      2.000     0.000     0.240  2500.240
  MAY-03-2014 00:45:00      2.000     0.000     0.216  2500.216
  MAY-03-2014 01:00:00      2.000     0.000     0.204  2500.204
  MAY-03-2014 01:15:00      2.000     0.000     0.201  2500.201
  MAY-03-2014 01:30:00      2.000     0.000     0.202  2500.202
  MAY-03-2014 01:45:00      2.000     0.000     0.202  2500.202
  MAY-03-2014 02:00:00      2.000     0.000     0.202  2500.202
  MAY-03-2014 02:15:00      2.000     0.000     0.202  2500.202
  MAY-03-2014 02:30:00      2.000     0.000     0.202  2500.202
  MAY-03-2014 02:45:00      2.000     0.000     0.202  2500.202
  MAY-03-2014 03:00:00      2.000     0.000     0.202  2500.202
  MAY-03-2014 03:15:00      2.000     0.000     0.202  2500.202
  MAY-03-2014 03:30:00      2.000     0.000     0.202  2500.202
  MAY-03-2014 03:45:00      2.095     0.000     0.204  2500.204
  MAY-03-2014 04:00:00      2.829     0.000     0.233  2500.233
  MAY-03-2014 04:15:00      5.441     0.000     0.345  2500.345
  MAY-03-2014 04:30:00      8.366     0.000     0.460  2500.460
  MAY-03-2014 04:45:00      9.937     0.000     0.504  2500.504
  MAY-03-2014 05:00:00     11.063     0.000     0.547  2500.547
  MAY-03-2014 05:15:00      9.870     0.000     0.525  2500.525
  MAY-03-2014 05:30:00      7.836     0.000     0.465  2500.465
  MAY-03-2014 05:45:00      6.295     0.000     0.408  2500.408
  MAY-03-2014 06:00:00      5.272     0.000     0.366  2500.366
  MAY-03-2014 06:15:00      4.561     0.000     0.334  2500.334
  MAY-03-2014 06:30:00      4.048     0.000     0.310  2500.310
  MAY-03-2014 06:45:00      3.668     0.000     0.291  2500.291
  MAY-03-2014 07:00:00      3.378     0.000     0.276  2500.276
  MAY-03-2014 07:15:00      3.154     0.000     0.264  2500.264
  MAY-03-2014 07:30:00      2.976     0.000     0.255  2500.255
  MAY-03-2014 07:45:00      2.833     0.000     0.247  2500.247
  MAY-03-2014 08:00:00      2.716     0.000     0.240  2500.240
  MAY-03-2014 08:15:00      2.621     0.000     0.235  2500.235
  MAY-03-2014 08:30:00      2.541     0.000     0.230  2500.230
  MAY-03-2014 08:45:00      2.474     0.000     0.226  2500.226
  MAY-03-2014 09:00:00      2.418     0.000     0.223  2500.223
  MAY-03-2014 09:15:00      2.370     0.000     0.220  2500.220
  MAY-03-2014 09:30:00      2.329     0.000     0.218  2500.218
  MAY-03-2014 09:45:00      2.293     0.000     0.216  2500.216
  MAY-03-2014 10:00:00      2.263     0.000     0.214  2500.214
  MAY-03-2014 10:15:00      2.236     0.000     0.212  2500.212
  MAY-03-2014 10:30:00      2.213     0.000     0.211  2500.211
  MAY-03-2014 10:45:00      2.193     0.000     0.210  2500.210
  MAY-03-2014 11:00:00      2.176     0.000     0.209  2500.209
  MAY-03-2014 11:15:00      2.160     0.000     0.209  2500.209
  MAY-03-2014 11:30:00      2.146     0.000     0.209  2500.209
  MAY-03-2014 11:45:00      2.134     0.000     0.208  2500.208
  MAY-03-2014 12:00:00      2.123     0.000     0.208  2500.208
  MAY-03-2014 12:15:00      2.113     0.000     0.208  2500.208
  MAY-03-2014 12:30:00      2.104     0.000     0.207  2500.207
  MAY-03-2014 12:45:00      2.096     0.000     0.207  2500.207
  MAY-03-2014 13:00:00      2.089     0.000     0.207  2500.207
  MAY-03-2014 13:15:00      2.083     0.000     0.206  2500.207
  MAY-03-2014 13:30:00      2.078     0.000     0.206  2500.206
  MAY-03-2014 13:45:00      2.073     0.000     0.206  2500.206
  MAY-03-2014 14:00:00      2.069     0.000     0.206  2500.206
  MAY-03-2014 14:15:00      2.065     0.000     0.206  2500.206
  MAY-03-2014 14:30:00      2.061     0.000     0.206  2500.206
  MAY-03-2014 14:45:00      2.058     0.000     0.206  2500.206
  MAY-03-2014 15:00:00      2.055     0.000     0.205  2500.205
  MAY-03-2014 15:15:00      2.052     0.000     0.205  2500.205
  MAY-03-2014 15:30:00      2.049     0.000     0.205  2500.205
  MAY-03-2014 15:45:00      2.047     0.000     0.205  2500.205
  MAY-03-2014 16:00:00      2.044     0.000     0.205  2500.205
  MAY-03-2014 16:15:00      2.042     0.000     0.205  2500.205
  MAY-03-2014 16:30:00      2.040     0.000     0.205  2500.205
  MAY-03-2014 16:45:00      2.038     0.000     0.204  2500.205
  MAY-03-2014 17:00:00      2.037     0.000     0.204  2500.204
  MAY-03-2014 17:15:00      2.035     0.000     0.204  2500.204
  MAY-03-2014 17:30:00      2.033     0.000     0.204  2500.204
  MAY-03-2014 17:45:00      2.032     0.000     0.204  2500.204
  MAY-03-2014 18:00:00      2.031     0.000     0.204  2500.204
  
  
  <<< Node N-6 >>>
  ----------------------------------------------------------------
                           Inflow  Flooding     Depth      Head
  Date        Time            CMS       CMS    meters    meters
  ----------------------------------------------------------------
  MAY-03-2014 00:15:00      0.973     0.000     0.032  2499.022
  MAY-03-2014 00:30:00      2.156     0.000     0.157  2499.146
  MAY-03-2014 00:45:00      2.167     0.000     0.195  2499.185
  MAY-03-2014 01:00:00      2.050     0.000     0.197  2499.187
  MAY-03-2014 01:15:00      2.002     0.000     0.193  2499.184
  MAY-03-2014 01:30:00      1.995     0.000     0.192  2499.182
  MAY-03-2014 01:45:00      1.998     0.000     0.192  2499.182
  MAY-03-2014 02:00:00      2.000     0.000     0.192  2499.182
  MAY-03-2014 02:15:00      2.000     0.000     0.192  2499.182
  MAY-03-2014 02:30:00      2.000     0.000     0.192  2499.182
  MAY-03-2014 02:45:00      2.000     0.000     0.192  2499.182
  MAY-03-2014 03:00:00      2.000     0.000     0.192  2499.182
  MAY-03-2014 03:15:00      2.000     0.000     0.192  2499.182
  MAY-03-2014 03:30:00      2.000     0.000     0.192  2499.182
  MAY-03-2014 03:45:00      2.020     0.000     0.192  2499.182
  MAY-03-2014 04:00:00      2.358     0.000     0.200  2499.190
  MAY-03-2014 04:15:00      4.204     0.000     0.252  2499.242
  MAY-03-2014 04:30:00      8.391     0.000     0.448  2499.438
  MAY-03-2014 04:45:00     10.979     0.000     0.732  2499.721
  MAY-03-2014 05:00:00     13.349     0.000     1.013  2500.003
  MAY-03-2014 05:15:00     12.062     0.000     1.184  2500.174
  MAY-03-2014 05:30:00      9.513     0.000     1.191  2500.181
  MAY-03-2014 05:45:00      7.509     0.000     1.104  2500.094
  MAY-03-2014 06:00:00      6.191     0.000     0.989  2499.979
  MAY-03-2014 06:15:00      5.293     0.000     0.882  2499.872
  MAY-03-2014 06:30:00      4.653     0.000     0.782  2499.772
  MAY-03-2014 06:45:00      4.179     0.000     0.681  2499.671
  MAY-03-2014 07:00:00      3.818     0.000     0.589  2499.579
  MAY-03-2014 07:15:00      3.536     0.000     0.509  2499.499
  MAY-03-2014 07:30:00      3.311     0.000     0.447  2499.438
  MAY-03-2014 07:45:00      3.130     0.000     0.400  2499.390
  MAY-03-2014 08:00:00      2.981     0.000     0.363  2499.353
  MAY-03-2014 08:15:00      2.856     0.000     0.333  2499.323
  MAY-03-2014 08:30:00      2.752     0.000     0.309  2499.299
  MAY-03-2014 08:45:00      2.663     0.000     0.290  2499.280
  MAY-03-2014 09:00:00      2.587     0.000     0.274  2499.264
  MAY-03-2014 09:15:00      2.522     0.000     0.261  2499.250
  MAY-03-2014 09:30:00      2.465     0.000     0.249  2499.239
  MAY-03-2014 09:45:00      2.416     0.000     0.240  2499.230
  MAY-03-2014 10:00:00      2.372     0.000     0.231  2499.221
  MAY-03-2014 10:15:00      2.334     0.000     0.224  2499.214
  MAY-03-2014 10:30:00      2.301     0.000     0.218  2499.208
  MAY-03-2014 10:45:00      2.271     0.000     0.213  2499.203
  MAY-03-2014 11:00:00      2.241     0.000     0.208  2499.198
  MAY-03-2014 11:15:00      2.211     0.000     0.205  2499.195
  MAY-03-2014 11:30:00      2.194     0.000     0.204  2499.194
  MAY-03-2014 11:45:00      2.177     0.000     0.202  2499.192
  MAY-03-2014 12:00:00      2.161     0.000     0.202  2499.191
  MAY-03-2014 12:15:00      2.145     0.000     0.201  2499.191
  MAY-03-2014 12:30:00      2.131     0.000     0.200  2499.190
  MAY-03-2014 12:45:00      2.119     0.000     0.199  2499.189
  MAY-03-2014 13:00:00      2.108     0.000     0.198  2499.188
  MAY-03-2014 13:15:00      2.098     0.000     0.198  2499.188
  MAY-03-2014 13:30:00      2.090     0.000     0.197  2499.187
  MAY-03-2014 13:45:00      2.082     0.000     0.197  2499.187
  MAY-03-2014 14:00:00      2.075     0.000     0.196  2499.187
  MAY-03-2014 14:15:00      2.070     0.000     0.196  2499.186
  MAY-03-2014 14:30:00      2.065     0.000     0.196  2499.186
  MAY-03-2014 14:45:00      2.060     0.000     0.195  2499.186
  MAY-03-2014 15:00:00      2.057     0.000     0.195  2499.185
  MAY-03-2014 15:15:00      2.054     0.000     0.195  2499.185
  MAY-03-2014 15:30:00      2.051     0.000     0.195  2499.185
  MAY-03-2014 15:45:00      2.049     0.000     0.195  2499.185
  MAY-03-2014 16:00:00      2.046     0.000     0.195  2499.185
  MAY-03-2014 16:15:00      2.044     0.000     0.194  2499.185
  MAY-03-2014 16:30:00      2.042     0.000     0.194  2499.184
  MAY-03-2014 16:45:00      2.040     0.000     0.194  2499.184
  MAY-03-2014 17:00:00      2.038     0.000     0.194  2499.184
  MAY-03-2014 17:15:00      2.036     0.000     0.194  2499.184
  MAY-03-2014 17:30:00      2.035     0.000     0.194  2499.184
  MAY-03-2014 17:45:00      2.033     0.000     0.194  2499.184
  MAY-03-2014 18:00:00      2.032     0.000     0.194  2499.184
  
  
  <<< Node N-7 >>>
  ----------------------------------------------------------------
                           Inflow  Flooding     Depth      Head
  Date        Time            CMS       CMS    meters    meters
  ----------------------------------------------------------------
  MAY-03-2014 00:15:00      0.035     0.000     0.002  2498.642
  MAY-03-2014 00:30:00      1.115     0.000     0.108  2498.748
  MAY-03-2014 00:45:00      2.044     0.000     0.415  2499.054
  MAY-03-2014 01:00:00      2.082     0.000     0.491  2499.130
  MAY-03-2014 01:15:00      2.029     0.000     0.485  2499.125
  MAY-03-2014 01:30:00      2.002     0.000     0.480  2499.119
  MAY-03-2014 01:45:00      1.998     0.000     0.477  2499.117
  MAY-03-2014 02:00:00      1.999     0.000     0.477  2499.117
  MAY-03-2014 02:15:00      2.000     0.000     0.477  2499.117
  MAY-03-2014 02:30:00      2.000     0.000     0.477  2499.117
  MAY-03-2014 02:45:00      2.000     0.000     0.477  2499.117
  MAY-03-2014 03:00:00      2.000     0.000     0.477  2499.117
  MAY-03-2014 03:15:00      2.000     0.000     0.477  2499.117
  MAY-03-2014 03:30:00      2.000     0.000     0.477  2499.117
  MAY-03-2014 03:45:00      2.004     0.000     0.477  2499.117
  MAY-03-2014 04:00:00      2.138     0.000     0.485  2499.125
  MAY-03-2014 04:15:00      3.046     0.000     0.559  2499.199
  MAY-03-2014 04:30:00      5.100     0.000     0.772  2499.412
  MAY-03-2014 04:45:00      7.496     0.000     1.069  2499.709
  MAY-03-2014 05:00:00     10.000     0.000     1.357  2499.997
  MAY-03-2014 05:15:00     10.946     0.000     1.530  2500.170
  MAY-03-2014 05:30:00     10.318     0.000     1.537  2500.177
  MAY-03-2014 05:45:00      8.895     0.000     1.448  2500.088
  MAY-03-2014 06:00:00      7.839     0.000     1.333  2499.972
  MAY-03-2014 06:15:00      6.687     0.000     1.229  2499.869
  MAY-03-2014 06:30:00      6.014     0.000     1.123  2499.763
  MAY-03-2014 06:45:00      5.332     0.000     1.022  2499.662
  MAY-03-2014 07:00:00      4.879     0.000     0.928  2499.568
  MAY-03-2014 07:15:00      4.358     0.000     0.846  2499.486
  MAY-03-2014 07:30:00      3.945     0.000     0.783  2499.423
  MAY-03-2014 07:45:00      3.615     0.000     0.733  2499.373
  MAY-03-2014 08:00:00      3.360     0.000     0.694  2499.334
  MAY-03-2014 08:15:00      3.158     0.000     0.663  2499.303
  MAY-03-2014 08:30:00      2.995     0.000     0.637  2499.277
  MAY-03-2014 08:45:00      2.862     0.000     0.616  2499.256
  MAY-03-2014 09:00:00      2.752     0.000     0.599  2499.239
  MAY-03-2014 09:15:00      2.660     0.000     0.584  2499.224
  MAY-03-2014 09:30:00      2.582     0.000     0.572  2499.212
  MAY-03-2014 09:45:00      2.515     0.000     0.561  2499.201
  MAY-03-2014 10:00:00      2.458     0.000     0.552  2499.192
  MAY-03-2014 10:15:00      2.408     0.000     0.544  2499.184
  MAY-03-2014 10:30:00      2.365     0.000     0.537  2499.177
  MAY-03-2014 10:45:00      2.327     0.000     0.531  2499.171
  MAY-03-2014 11:00:00      2.290     0.000     0.525  2499.165
  MAY-03-2014 11:15:00      2.233     0.000     0.517  2499.157
  MAY-03-2014 11:30:00      2.207     0.000     0.512  2499.151
  MAY-03-2014 11:45:00      2.188     0.000     0.508  2499.148
  MAY-03-2014 12:00:00      2.171     0.000     0.505  2499.145
  MAY-03-2014 12:15:00      2.155     0.000     0.503  2499.143
  MAY-03-2014 12:30:00      2.140     0.000     0.500  2499.140
  MAY-03-2014 12:45:00      2.127     0.000     0.498  2499.138
  MAY-03-2014 13:00:00      2.115     0.000     0.496  2499.136
  MAY-03-2014 13:15:00      2.104     0.000     0.494  2499.134
  MAY-03-2014 13:30:00      2.095     0.000     0.493  2499.133
  MAY-03-2014 13:45:00      2.087     0.000     0.491  2499.131
  MAY-03-2014 14:00:00      2.080     0.000     0.490  2499.130
  MAY-03-2014 14:15:00      2.073     0.000     0.489  2499.129
  MAY-03-2014 14:30:00      2.068     0.000     0.488  2499.128
  MAY-03-2014 14:45:00      2.063     0.000     0.487  2499.127
  MAY-03-2014 15:00:00      2.059     0.000     0.487  2499.126
  MAY-03-2014 15:15:00      2.056     0.000     0.486  2499.126
  MAY-03-2014 15:30:00      2.053     0.000     0.486  2499.125
  MAY-03-2014 15:45:00      2.050     0.000     0.485  2499.125
  MAY-03-2014 16:00:00      2.048     0.000     0.485  2499.125
  MAY-03-2014 16:15:00      2.045     0.000     0.484  2499.124
  MAY-03-2014 16:30:00      2.043     0.000     0.484  2499.124
  MAY-03-2014 16:45:00      2.041     0.000     0.484  2499.124
  MAY-03-2014 17:00:00      2.039     0.000     0.483  2499.123
  MAY-03-2014 17:15:00      2.037     0.000     0.483  2499.123
  MAY-03-2014 17:30:00      2.036     0.000     0.483  2499.123
  MAY-03-2014 17:45:00      2.034     0.000     0.482  2499.122
  MAY-03-2014 18:00:00      2.033     0.000     0.482  2499.122
  
  
  <<< Node N-9 >>>
  ----------------------------------------------------------------
                           Inflow  Flooding     Depth      Head
  Date        Time            CMS       CMS    meters    meters
  ----------------------------------------------------------------
  MAY-03-2014 00:15:00      0.000     0.000     0.000  2498.000
  MAY-03-2014 00:30:00      0.073     0.000     0.009  2498.009
  MAY-03-2014 00:45:00      1.399     0.000     0.270  2498.270
  MAY-03-2014 01:00:00      2.060     0.000     0.474  2498.474
  MAY-03-2014 01:15:00      2.055     0.000     0.534  2498.534
  MAY-03-2014 01:30:00      2.017     0.000     0.542  2498.542
  MAY-03-2014 01:45:00      2.002     0.000     0.541  2498.541
  MAY-03-2014 02:00:00      1.999     0.000     0.540  2498.540
  MAY-03-2014 02:15:00      1.999     0.000     0.540  2498.540
  MAY-03-2014 02:30:00      2.000     0.000     0.540  2498.540
  MAY-03-2014 02:45:00      2.000     0.000     0.540  2498.540
  MAY-03-2014 03:00:00      2.000     0.000     0.540  2498.540
  MAY-03-2014 03:15:00      2.000     0.000     0.540  2498.540
  MAY-03-2014 03:30:00      2.000     0.000     0.540  2498.540
  MAY-03-2014 03:45:00      2.001     0.000     0.540  2498.541
  MAY-03-2014 04:00:00      2.052     0.000     0.544  2498.544
  MAY-03-2014 04:15:00      2.519     0.000     0.585  2498.585
  MAY-03-2014 04:30:00      3.931     0.000     0.730  2498.730
  MAY-03-2014 04:45:00      6.333     0.000     0.995  2498.995
  MAY-03-2014 05:00:00      8.909     0.000     1.272  2499.272
  MAY-03-2014 05:15:00     10.556     0.000     1.490  2499.490
  MAY-03-2014 05:30:00     10.561     0.000     1.558  2499.558
  MAY-03-2014 05:45:00      9.287     0.000     1.685  2499.685
  MAY-03-2014 06:00:00      8.362     0.000     1.557  2499.557
  MAY-03-2014 06:15:00      6.900     0.000     1.586  2499.586
  MAY-03-2014 06:30:00      6.356     0.000     1.471  2499.471
  MAY-03-2014 06:45:00      5.779     0.000     1.356  2499.356
  MAY-03-2014 07:00:00      5.217     0.000     1.245  2499.245
  MAY-03-2014 07:15:00      4.651     0.000     1.137  2499.137
  MAY-03-2014 07:30:00      4.157     0.000     1.031  2499.031
  MAY-03-2014 07:45:00      3.783     0.000     0.944  2498.944
  MAY-03-2014 08:00:00      3.492     0.000     0.879  2498.879
  MAY-03-2014 08:15:00      3.264     0.000     0.770  2498.770
  MAY-03-2014 08:30:00      3.082     0.000     0.736  2498.736
  MAY-03-2014 08:45:00      2.933     0.000     0.710  2498.710
  MAY-03-2014 09:00:00      2.812     0.000     0.690  2498.690
  MAY-03-2014 09:15:00      2.710     0.000     0.643  2498.644
  MAY-03-2014 09:30:00      2.625     0.000     0.629  2498.629
  MAY-03-2014 09:45:00      2.552     0.000     0.621  2498.622
  MAY-03-2014 10:00:00      2.489     0.000     0.613  2498.613
  MAY-03-2014 10:15:00      2.436     0.000     0.607  2498.607
  MAY-03-2014 10:30:00      2.389     0.000     0.601  2498.601
  MAY-03-2014 10:45:00      2.348     0.000     0.595  2498.595
  MAY-03-2014 11:00:00      2.312     0.000     0.590  2498.590
  MAY-03-2014 11:15:00      2.260     0.000     0.583  2498.583
  MAY-03-2014 11:30:00      2.222     0.000     0.577  2498.576
  MAY-03-2014 11:45:00      2.199     0.000     0.572  2498.572
  MAY-03-2014 12:00:00      2.181     0.000     0.569  2498.569
  MAY-03-2014 12:15:00      2.164     0.000     0.566  2498.566
  MAY-03-2014 12:30:00      2.148     0.000     0.564  2498.564
  MAY-03-2014 12:45:00      2.134     0.000     0.562  2498.562
  MAY-03-2014 13:00:00      2.121     0.000     0.560  2498.560
  MAY-03-2014 13:15:00      2.110     0.000     0.558  2498.558
  MAY-03-2014 13:30:00      2.100     0.000     0.556  2498.556
  MAY-03-2014 13:45:00      2.091     0.000     0.555  2498.555
  MAY-03-2014 14:00:00      2.084     0.000     0.554  2498.554
  MAY-03-2014 14:15:00      2.077     0.000     0.553  2498.553
  MAY-03-2014 14:30:00      2.071     0.000     0.552  2498.552
  MAY-03-2014 14:45:00      2.066     0.000     0.551  2498.551
  MAY-03-2014 15:00:00      2.061     0.000     0.550  2498.550
  MAY-03-2014 15:15:00      2.058     0.000     0.550  2498.550
  MAY-03-2014 15:30:00      2.055     0.000     0.549  2498.549
  MAY-03-2014 15:45:00      2.052     0.000     0.549  2498.549
  MAY-03-2014 16:00:00      2.049     0.000     0.548  2498.548
  MAY-03-2014 16:15:00      2.047     0.000     0.548  2498.548
  MAY-03-2014 16:30:00      2.045     0.000     0.547  2498.547
  MAY-03-2014 16:45:00      2.042     0.000     0.547  2498.547
  MAY-03-2014 17:00:00      2.040     0.000     0.547  2498.547
  MAY-03-2014 17:15:00      2.038     0.000     0.546  2498.546
  MAY-03-2014 17:30:00      2.037     0.000     0.546  2498.546
  MAY-03-2014 17:45:00      2.035     0.000     0.546  2498.546
  MAY-03-2014 18:00:00      2.033     0.000     0.546  2498.546
  
  
  <<< Node N-13 >>>
  ----------------------------------------------------------------
                           Inflow  Flooding     Depth      Head
  Date        Time            CMS       CMS    meters    meters
  ----------------------------------------------------------------
  MAY-03-2014 00:15:00      0.000     0.000     0.000  2498.000
  MAY-03-2014 00:30:00      0.002     0.000     0.002  2498.001
  MAY-03-2014 00:45:00      0.360     0.000     0.138  2498.138
  MAY-03-2014 01:00:00      0.665     0.000     0.362  2498.362
  MAY-03-2014 01:15:00      0.672     0.000     0.456  2498.456
  MAY-03-2014 01:30:00      0.655     0.000     0.472  2498.472
  MAY-03-2014 01:45:00      0.649     0.000     0.473  2498.473
  MAY-03-2014 02:00:00      0.648     0.000     0.472  2498.472
  MAY-03-2014 02:15:00      0.648     0.000     0.472  2498.472
  MAY-03-2014 02:30:00      0.648     0.000     0.472  2498.472
  MAY-03-2014 02:45:00      0.648     0.000     0.472  2498.472
  MAY-03-2014 03:00:00      0.648     0.000     0.472  2498.472
  MAY-03-2014 03:15:00      0.648     0.000     0.472  2498.472
  MAY-03-2014 03:30:00      0.648     0.000     0.472  2498.472
  MAY-03-2014 03:45:00      0.648     0.000     0.472  2498.472
  MAY-03-2014 04:00:00      0.661     0.000     0.473  2498.473
  MAY-03-2014 04:15:00      0.789     0.000     0.492  2498.492
  MAY-03-2014 04:30:00      1.214     0.000     0.578  2498.578
  MAY-03-2014 04:45:00      2.000     0.000     0.766  2498.766
  MAY-03-2014 05:00:00      2.838     0.000     0.996  2498.996
  MAY-03-2014 05:15:00      3.387     0.000     1.219  2499.219
  MAY-03-2014 05:30:00      3.386     0.000     1.324  2499.324
  MAY-03-2014 05:45:00      1.658     0.000     0.808  2498.808
  MAY-03-2014 06:00:00      1.587     0.000     0.758  2498.758
  MAY-03-2014 06:15:00      1.610     0.000     0.762  2498.762
  MAY-03-2014 06:30:00      1.520     0.000     0.737  2498.737
  MAY-03-2014 06:45:00      1.425     0.000     0.711  2498.711
  MAY-03-2014 07:00:00      1.329     0.000     0.684  2498.684
  MAY-03-2014 07:15:00      1.231     0.000     0.656  2498.656
  MAY-03-2014 07:30:00      1.130     0.000     0.626  2498.626
  MAY-03-2014 07:45:00      1.043     0.000     0.599  2498.599
  MAY-03-2014 08:00:00      0.976     0.000     0.576  2498.576
  MAY-03-2014 08:15:00      0.855     0.000     0.538  2498.538
  MAY-03-2014 08:30:00      0.819     0.000     0.523  2498.523
  MAY-03-2014 08:45:00      0.790     0.000     0.512  2498.512
  MAY-03-2014 09:00:00      0.766     0.000     0.503  2498.503
  MAY-03-2014 09:15:00      0.898     0.000     0.547  2498.547
  MAY-03-2014 09:30:00      0.863     0.000     0.536  2498.536
  MAY-03-2014 09:45:00      0.847     0.000     0.530  2498.530
  MAY-03-2014 10:00:00      0.827     0.000     0.523  2498.523
  MAY-03-2014 10:15:00      0.793     0.000     0.524  2498.524
  MAY-03-2014 10:30:00      0.776     0.000     0.521  2498.521
  MAY-03-2014 10:45:00      0.763     0.000     0.516  2498.516
  MAY-03-2014 11:00:00      0.751     0.000     0.512  2498.512
  MAY-03-2014 11:15:00      0.735     0.000     0.507  2498.507
  MAY-03-2014 11:30:00      0.721     0.000     0.502  2498.502
  MAY-03-2014 11:45:00      0.714     0.000     0.498  2498.498
  MAY-03-2014 12:00:00      0.708     0.000     0.495  2498.495
  MAY-03-2014 12:15:00      0.702     0.000     0.493  2498.493
  MAY-03-2014 12:30:00      0.697     0.000     0.491  2498.491
  MAY-03-2014 12:45:00      0.692     0.000     0.489  2498.489
  MAY-03-2014 13:00:00      0.688     0.000     0.488  2498.488
  MAY-03-2014 13:15:00      0.684     0.000     0.486  2498.486
  MAY-03-2014 13:30:00      0.681     0.000     0.485  2498.485
  MAY-03-2014 13:45:00      0.678     0.000     0.484  2498.484
  MAY-03-2014 14:00:00      0.676     0.000     0.483  2498.483
  MAY-03-2014 14:15:00      0.674     0.000     0.482  2498.482
  MAY-03-2014 14:30:00      0.672     0.000     0.481  2498.481
  MAY-03-2014 14:45:00      0.670     0.000     0.480  2498.480
  MAY-03-2014 15:00:00      0.668     0.000     0.480  2498.480
  MAY-03-2014 15:15:00      0.667     0.000     0.479  2498.479
  MAY-03-2014 15:30:00      0.666     0.000     0.479  2498.479
  MAY-03-2014 15:45:00      0.665     0.000     0.479  2498.479
  MAY-03-2014 16:00:00      0.664     0.000     0.478  2498.478
  MAY-03-2014 16:15:00      0.664     0.000     0.478  2498.478
  MAY-03-2014 16:30:00      0.663     0.000     0.478  2498.478
  MAY-03-2014 16:45:00      0.662     0.000     0.477  2498.477
  MAY-03-2014 17:00:00      0.661     0.000     0.477  2498.477
  MAY-03-2014 17:15:00      0.661     0.000     0.477  2498.477
  MAY-03-2014 17:30:00      0.660     0.000     0.477  2498.477
  MAY-03-2014 17:45:00      0.660     0.000     0.476  2498.476
  MAY-03-2014 18:00:00      0.659     0.000     0.476  2498.476
  
  
  <<< Node N-14 >>>
  ----------------------------------------------------------------
                           Inflow  Flooding     Depth      Head
  Date        Time            CMS       CMS    meters    meters
  ----------------------------------------------------------------
  MAY-03-2014 00:15:00      0.000     0.000     0.000  2498.000
  MAY-03-2014 00:30:00      0.002     0.000     0.002  2498.002
  MAY-03-2014 00:45:00      0.352     0.000     0.147  2498.147
  MAY-03-2014 01:00:00      0.675     0.000     0.357  2498.357
  MAY-03-2014 01:15:00      0.744     0.000     0.430  2498.430
  MAY-03-2014 01:30:00      0.748     0.000     0.442  2498.442
  MAY-03-2014 01:45:00      0.744     0.000     0.442  2498.442
  MAY-03-2014 02:00:00      0.743     0.000     0.441  2498.441
  MAY-03-2014 02:15:00      0.743     0.000     0.441  2498.441
  MAY-03-2014 02:30:00      0.743     0.000     0.441  2498.441
  MAY-03-2014 02:45:00      0.743     0.000     0.441  2498.441
  MAY-03-2014 03:00:00      0.743     0.000     0.441  2498.441
  MAY-03-2014 03:15:00      0.743     0.000     0.441  2498.441
  MAY-03-2014 03:30:00      0.743     0.000     0.441  2498.441
  MAY-03-2014 03:45:00      0.743     0.000     0.441  2498.441
  MAY-03-2014 04:00:00      0.755     0.000     0.443  2498.443
  MAY-03-2014 04:15:00      0.877     0.000     0.462  2498.462
  MAY-03-2014 04:30:00      1.303     0.000     0.544  2498.544
  MAY-03-2014 04:45:00      2.130     0.000     0.722  2498.722
  MAY-03-2014 05:00:00      3.066     0.000     0.929  2498.929
  MAY-03-2014 05:15:00      3.770     0.000     1.125  2499.125
  MAY-03-2014 05:30:00      3.899     0.000     1.213  2499.213
  MAY-03-2014 05:45:00      4.223     0.000     1.350  2499.350
  MAY-03-2014 06:00:00      3.780     0.000     1.242  2499.242
  MAY-03-2014 06:15:00      3.857     0.000     1.270  2499.270
  MAY-03-2014 06:30:00      3.541     0.000     1.156  2499.156
  MAY-03-2014 06:45:00      3.175     0.000     1.054  2499.054
  MAY-03-2014 07:00:00      2.806     0.000     0.964  2498.964
  MAY-03-2014 07:15:00      2.444     0.000     0.883  2498.883
  MAY-03-2014 07:30:00      2.102     0.000     0.803  2498.803
  MAY-03-2014 07:45:00      1.832     0.000     0.738  2498.738
  MAY-03-2014 08:00:00      1.640     0.000     0.688  2498.688
  MAY-03-2014 08:15:00      1.321     0.000     0.611  2498.611
  MAY-03-2014 08:30:00      1.233     0.000     0.584  2498.584
  MAY-03-2014 08:45:00      1.166     0.000     0.565  2498.565
  MAY-03-2014 09:00:00      1.112     0.000     0.550  2498.550
  MAY-03-2014 09:15:00      0.984     0.000     0.519  2498.520
  MAY-03-2014 09:30:00      0.956     0.000     0.507  2498.507
  MAY-03-2014 09:45:00      0.938     0.000     0.500  2498.500
  MAY-03-2014 10:00:00      0.916     0.000     0.494  2498.494
  MAY-03-2014 10:15:00      0.902     0.000     0.489  2498.490
  MAY-03-2014 10:30:00      0.887     0.000     0.486  2498.486
  MAY-03-2014 10:45:00      0.872     0.000     0.481  2498.481
  MAY-03-2014 11:00:00      0.859     0.000     0.477  2498.477
  MAY-03-2014 11:15:00      0.842     0.000     0.473  2498.473
  MAY-03-2014 11:30:00      0.827     0.000     0.468  2498.468
  MAY-03-2014 11:45:00      0.817     0.000     0.465  2498.465
  MAY-03-2014 12:00:00      0.810     0.000     0.462  2498.462
  MAY-03-2014 12:15:00      0.804     0.000     0.460  2498.460
  MAY-03-2014 12:30:00      0.798     0.000     0.459  2498.459
  MAY-03-2014 12:45:00      0.793     0.000     0.457  2498.457
  MAY-03-2014 13:00:00      0.788     0.000     0.456  2498.456
  MAY-03-2014 13:15:00      0.784     0.000     0.454  2498.454
  MAY-03-2014 13:30:00      0.780     0.000     0.453  2498.453
  MAY-03-2014 13:45:00      0.777     0.000     0.452  2498.452
  MAY-03-2014 14:00:00      0.774     0.000     0.451  2498.451
  MAY-03-2014 14:15:00      0.772     0.000     0.450  2498.450
  MAY-03-2014 14:30:00      0.769     0.000     0.450  2498.449
  MAY-03-2014 14:45:00      0.767     0.000     0.449  2498.449
  MAY-03-2014 15:00:00      0.766     0.000     0.448  2498.448
  MAY-03-2014 15:15:00      0.764     0.000     0.448  2498.448
  MAY-03-2014 15:30:00      0.763     0.000     0.448  2498.448
  MAY-03-2014 15:45:00      0.762     0.000     0.447  2498.447
  MAY-03-2014 16:00:00      0.761     0.000     0.447  2498.447
  MAY-03-2014 16:15:00      0.760     0.000     0.447  2498.447
  MAY-03-2014 16:30:00      0.759     0.000     0.446  2498.446
  MAY-03-2014 16:45:00      0.759     0.000     0.446  2498.446
  MAY-03-2014 17:00:00      0.758     0.000     0.446  2498.446
  MAY-03-2014 17:15:00      0.757     0.000     0.446  2498.446
  MAY-03-2014 17:30:00      0.756     0.000     0.446  2498.446
  MAY-03-2014 17:45:00      0.756     0.000     0.445  2498.445
  MAY-03-2014 18:00:00      0.755     0.000     0.445  2498.445
  
  
  <<< Node N-15 >>>
  ----------------------------------------------------------------
                           Inflow  Flooding     Depth      Head
  Date        Time            CMS       CMS    meters    meters
  ----------------------------------------------------------------
  MAY-03-2014 00:15:00      0.000     0.000     0.000  2498.000
  MAY-03-2014 00:30:00      0.002     0.000     0.002  2498.002
  MAY-03-2014 00:45:00      0.323     0.000     0.176  2498.176
  MAY-03-2014 01:00:00      0.564     0.000     0.403  2498.403
  MAY-03-2014 01:15:00      0.611     0.000     0.473  2498.473
  MAY-03-2014 01:30:00      0.613     0.000     0.484  2498.483
  MAY-03-2014 01:45:00      0.610     0.000     0.483  2498.483
  MAY-03-2014 02:00:00      0.609     0.000     0.483  2498.483
  MAY-03-2014 02:15:00      0.609     0.000     0.483  2498.482
  MAY-03-2014 02:30:00      0.609     0.000     0.483  2498.483
  MAY-03-2014 02:45:00      0.609     0.000     0.483  2498.483
  MAY-03-2014 03:00:00      0.609     0.000     0.483  2498.483
  MAY-03-2014 03:15:00      0.609     0.000     0.483  2498.483
  MAY-03-2014 03:30:00      0.609     0.000     0.483  2498.483
  MAY-03-2014 03:45:00      0.609     0.000     0.483  2498.483
  MAY-03-2014 04:00:00      0.621     0.000     0.484  2498.484
  MAY-03-2014 04:15:00      0.737     0.000     0.508  2498.508
  MAY-03-2014 04:30:00      1.124     0.000     0.607  2498.607
  MAY-03-2014 04:45:00      1.849     0.000     0.811  2498.811
  MAY-03-2014 05:00:00      2.651     0.000     1.043  2499.043
  MAY-03-2014 05:15:00      3.205     0.000     1.256  2499.256
  MAY-03-2014 05:30:00      3.283     0.000     1.343  2499.343
  MAY-03-2014 05:45:00      3.510     0.000     1.482  2499.482
  MAY-03-2014 06:00:00      3.223     0.000     1.352  2499.352
  MAY-03-2014 06:15:00      1.577     0.000     0.796  2498.796
  MAY-03-2014 06:30:00      1.460     0.000     0.795  2498.795
  MAY-03-2014 06:45:00      1.329     0.000     0.795  2498.795
  MAY-03-2014 07:00:00      1.216     0.000     0.775  2498.775
  MAY-03-2014 07:15:00      1.124     0.000     0.736  2498.736
  MAY-03-2014 07:30:00      1.048     0.000     0.682  2498.682
  MAY-03-2014 07:45:00      1.008     0.000     0.621  2498.621
  MAY-03-2014 08:00:00      0.947     0.000     0.594  2498.594
  MAY-03-2014 08:15:00      1.145     0.000     0.663  2498.663
  MAY-03-2014 08:30:00      1.066     0.000     0.634  2498.634
  MAY-03-2014 08:45:00      1.007     0.000     0.613  2498.613
  MAY-03-2014 09:00:00      0.958     0.000     0.596  2498.596
  MAY-03-2014 09:15:00      0.851     0.000     0.560  2498.560
  MAY-03-2014 09:30:00      0.821     0.000     0.548  2498.548
  MAY-03-2014 09:45:00      0.777     0.000     0.549  2498.549
  MAY-03-2014 10:00:00      0.758     0.000     0.542  2498.542
  MAY-03-2014 10:15:00      0.746     0.000     0.537  2498.537
  MAY-03-2014 10:30:00      0.733     0.000     0.532  2498.532
  MAY-03-2014 10:45:00      0.720     0.000     0.527  2498.527
  MAY-03-2014 11:00:00      0.709     0.000     0.523  2498.523
  MAY-03-2014 11:15:00      0.694     0.000     0.518  2498.518
  MAY-03-2014 11:30:00      0.681     0.000     0.512  2498.512
  MAY-03-2014 11:45:00      0.673     0.000     0.509  2498.509
  MAY-03-2014 12:00:00      0.667     0.000     0.506  2498.506
  MAY-03-2014 12:15:00      0.661     0.000     0.504  2498.504
  MAY-03-2014 12:30:00      0.656     0.000     0.502  2498.502
  MAY-03-2014 12:45:00      0.652     0.000     0.500  2498.500
  MAY-03-2014 13:00:00      0.648     0.000     0.498  2498.499
  MAY-03-2014 13:15:00      0.644     0.000     0.497  2498.497
  MAY-03-2014 13:30:00      0.641     0.000     0.496  2498.496
  MAY-03-2014 13:45:00      0.638     0.000     0.495  2498.495
  MAY-03-2014 14:00:00      0.635     0.000     0.494  2498.494
  MAY-03-2014 14:15:00      0.633     0.000     0.493  2498.493
  MAY-03-2014 14:30:00      0.631     0.000     0.492  2498.492
  MAY-03-2014 14:45:00      0.630     0.000     0.491  2498.491
  MAY-03-2014 15:00:00      0.628     0.000     0.491  2498.490
  MAY-03-2014 15:15:00      0.627     0.000     0.490  2498.490
  MAY-03-2014 15:30:00      0.626     0.000     0.490  2498.490
  MAY-03-2014 15:45:00      0.625     0.000     0.489  2498.489
  MAY-03-2014 16:00:00      0.624     0.000     0.489  2498.489
  MAY-03-2014 16:15:00      0.624     0.000     0.489  2498.489
  MAY-03-2014 16:30:00      0.623     0.000     0.488  2498.488
  MAY-03-2014 16:45:00      0.622     0.000     0.488  2498.488
  MAY-03-2014 17:00:00      0.621     0.000     0.488  2498.488
  MAY-03-2014 17:15:00      0.621     0.000     0.488  2498.488
  MAY-03-2014 17:30:00      0.620     0.000     0.487  2498.487
  MAY-03-2014 17:45:00      0.620     0.000     0.487  2498.487
  MAY-03-2014 18:00:00      0.619     0.000     0.487  2498.487
  
  
  <<< Node DES-1 >>>
  ----------------------------------------------------------------
                           Inflow  Flooding     Depth      Head
  Date        Time            CMS       CMS    meters    meters
  ----------------------------------------------------------------
  MAY-03-2014 00:15:00      0.000     0.000     0.000  2492.000
  MAY-03-2014 00:30:00      0.000     0.000     0.000  2492.000
  MAY-03-2014 00:45:00      0.000     0.000     0.000  2492.000
  MAY-03-2014 01:00:00      0.004     0.000     0.037  2492.037
  MAY-03-2014 01:15:00      0.052     0.000     0.120  2492.120
  MAY-03-2014 01:30:00      0.163     0.000     0.211  2492.211
  MAY-03-2014 01:45:00      0.300     0.000     0.288  2492.288
  MAY-03-2014 02:00:00      0.424     0.000     0.346  2492.346
  MAY-03-2014 02:15:00      0.521     0.000     0.388  2492.388
  MAY-03-2014 02:30:00      0.591     0.000     0.417  2492.417
  MAY-03-2014 02:45:00      0.640     0.000     0.436  2492.436
  MAY-03-2014 03:00:00      0.674     0.000     0.450  2492.450
  MAY-03-2014 03:15:00      0.697     0.000     0.459  2492.458
  MAY-03-2014 03:30:00      0.712     0.000     0.465  2492.465
  MAY-03-2014 03:45:00      0.722     0.000     0.469  2492.469
  MAY-03-2014 04:00:00      0.729     0.000     0.471  2492.471
  MAY-03-2014 04:15:00      0.739     0.000     0.475  2492.475
  MAY-03-2014 04:30:00      0.784     0.000     0.493  2492.493
  MAY-03-2014 04:45:00      0.948     0.000     0.556  2492.556
  MAY-03-2014 05:00:00      1.287     0.000     0.671  2492.671
  MAY-03-2014 05:15:00      1.496     0.000     0.722  2492.722
  MAY-03-2014 05:30:00      1.676     0.000     0.758  2492.758
  MAY-03-2014 05:45:00      1.849     0.000     0.788  2492.788
  MAY-03-2014 06:00:00      2.010     0.000     0.810  2492.810
  MAY-03-2014 06:15:00      2.143     0.000     0.827  2492.827
  MAY-03-2014 06:30:00      2.252     0.000     0.836  2492.836
  MAY-03-2014 06:45:00      2.329     0.000     0.842  2492.842
  MAY-03-2014 07:00:00      2.378     0.000     0.845  2492.845
  MAY-03-2014 07:15:00      2.403     0.000     0.847  2492.847
  MAY-03-2014 07:30:00      2.405     0.000     0.847  2492.847
  MAY-03-2014 07:45:00      2.388     0.000     0.846  2492.846
  MAY-03-2014 08:00:00      2.357     0.000     0.844  2492.844
  MAY-03-2014 08:15:00      2.312     0.000     0.840  2492.840
  MAY-03-2014 08:30:00      2.255     0.000     0.836  2492.836
  MAY-03-2014 08:45:00      2.194     0.000     0.831  2492.832
  MAY-03-2014 09:00:00      2.131     0.000     0.826  2492.826
  MAY-03-2014 09:15:00      2.065     0.000     0.817  2492.817
  MAY-03-2014 09:30:00      1.995     0.000     0.808  2492.808
  MAY-03-2014 09:45:00      1.925     0.000     0.799  2492.799
  MAY-03-2014 10:00:00      1.856     0.000     0.790  2492.790
  MAY-03-2014 10:15:00      1.787     0.000     0.778  2492.778
  MAY-03-2014 10:30:00      1.721     0.000     0.766  2492.766
  MAY-03-2014 10:45:00      1.657     0.000     0.755  2492.755
  MAY-03-2014 11:00:00      1.593     0.000     0.742  2492.742
  MAY-03-2014 11:15:00      1.532     0.000     0.729  2492.729
  MAY-03-2014 11:30:00      1.473     0.000     0.716  2492.716
  MAY-03-2014 11:45:00      1.449     0.000     0.711  2492.711
  MAY-03-2014 12:00:00      1.345     0.000     0.686  2492.686
  MAY-03-2014 12:15:00      1.207     0.000     0.651  2492.651
  MAY-03-2014 12:30:00      1.074     0.000     0.606  2492.606
  MAY-03-2014 12:45:00      0.989     0.000     0.572  2492.572
  MAY-03-2014 13:00:00      0.931     0.000     0.549  2492.549
  MAY-03-2014 13:15:00      0.885     0.000     0.532  2492.531
  MAY-03-2014 13:30:00      0.851     0.000     0.519  2492.519
  MAY-03-2014 13:45:00      0.828     0.000     0.509  2492.510
  MAY-03-2014 14:00:00      0.811     0.000     0.503  2492.503
  MAY-03-2014 14:15:00      0.799     0.000     0.498  2492.498
  MAY-03-2014 14:30:00      0.790     0.000     0.495  2492.495
  MAY-03-2014 14:45:00      0.783     0.000     0.492  2492.492
  MAY-03-2014 15:00:00      0.778     0.000     0.490  2492.490
  MAY-03-2014 15:15:00      0.774     0.000     0.489  2492.489
  MAY-03-2014 15:30:00      0.771     0.000     0.487  2492.487
  MAY-03-2014 15:45:00      0.768     0.000     0.486  2492.486
  MAY-03-2014 16:00:00      0.766     0.000     0.486  2492.486
  MAY-03-2014 16:15:00      0.765     0.000     0.485  2492.485
  MAY-03-2014 16:30:00      0.763     0.000     0.484  2492.484
  MAY-03-2014 16:45:00      0.762     0.000     0.484  2492.484
  MAY-03-2014 17:00:00      0.761     0.000     0.484  2492.484
  MAY-03-2014 17:15:00      0.760     0.000     0.483  2492.483
  MAY-03-2014 17:30:00      0.759     0.000     0.483  2492.483
  MAY-03-2014 17:45:00      0.758     0.000     0.482  2492.482
  MAY-03-2014 18:00:00      0.757     0.000     0.482  2492.482
  
  
  <<< Node DES-2 >>>
  ----------------------------------------------------------------
                           Inflow  Flooding     Depth      Head
  Date        Time            CMS       CMS    meters    meters
  ----------------------------------------------------------------
  MAY-03-2014 00:15:00      0.000     0.000     0.000  2493.630
  MAY-03-2014 00:30:00      0.000     0.000     0.000  2493.630
  MAY-03-2014 00:45:00      0.000     0.000     0.000  2493.630
  MAY-03-2014 01:00:00      0.021     0.000     0.075  2493.705
  MAY-03-2014 01:15:00      0.217     0.000     0.242  2493.872
  MAY-03-2014 01:30:00      0.463     0.000     0.374  2494.004
  MAY-03-2014 01:45:00      0.578     0.000     0.435  2494.064
  MAY-03-2014 02:00:00      0.620     0.000     0.458  2494.088
  MAY-03-2014 02:15:00      0.636     0.000     0.467  2494.097
  MAY-03-2014 02:30:00      0.643     0.000     0.471  2494.101
  MAY-03-2014 02:45:00      0.646     0.000     0.473  2494.103
  MAY-03-2014 03:00:00      0.647     0.000     0.474  2494.104
  MAY-03-2014 03:15:00      0.648     0.000     0.474  2494.104
  MAY-03-2014 03:30:00      0.648     0.000     0.474  2494.104
  MAY-03-2014 03:45:00      0.648     0.000     0.474  2494.104
  MAY-03-2014 04:00:00      0.648     0.000     0.475  2494.104
  MAY-03-2014 04:15:00      0.656     0.000     0.480  2494.109
  MAY-03-2014 04:30:00      0.715     0.000     0.518  2494.148
  MAY-03-2014 04:45:00      0.801     0.000     0.564  2494.194
  MAY-03-2014 05:00:00      0.996     0.000     0.603  2494.233
  MAY-03-2014 05:15:00      0.999     0.000     0.604  2494.234
  MAY-03-2014 05:30:00      1.033     0.000     0.608  2494.238
  MAY-03-2014 05:45:00      1.155     0.000     0.623  2494.253
  MAY-03-2014 06:00:00      1.278     0.000     0.650  2494.280
  MAY-03-2014 06:15:00      1.344     0.000     0.650  2494.280
  MAY-03-2014 06:30:00      1.350     0.000     0.650  2494.280
  MAY-03-2014 06:45:00      1.350     0.000     0.650  2494.280
  MAY-03-2014 07:00:00      1.350     0.000     0.650  2494.280
  MAY-03-2014 07:15:00      1.350     0.000     0.650  2494.280
  MAY-03-2014 07:30:00      1.346     0.000     0.650  2494.280
  MAY-03-2014 07:45:00      1.336     0.000     0.650  2494.280
  MAY-03-2014 08:00:00      1.322     0.000     0.650  2494.280
  MAY-03-2014 08:15:00      1.302     0.000     0.650  2494.280
  MAY-03-2014 08:30:00      1.279     0.000     0.650  2494.280
  MAY-03-2014 08:45:00      1.255     0.000     0.650  2494.280
  MAY-03-2014 09:00:00      1.230     0.000     0.650  2494.280
  MAY-03-2014 09:15:00      1.208     0.000     0.650  2494.280
  MAY-03-2014 09:30:00      1.192     0.000     0.650  2494.280
  MAY-03-2014 09:45:00      1.175     0.000     0.650  2494.280
  MAY-03-2014 10:00:00      1.043     0.000     0.609  2494.239
  MAY-03-2014 10:15:00      1.022     0.000     0.607  2494.237
  MAY-03-2014 10:30:00      0.997     0.000     0.604  2494.233
  MAY-03-2014 10:45:00      0.973     0.000     0.601  2494.230
  MAY-03-2014 11:00:00      1.140     0.000     0.621  2494.251
  MAY-03-2014 11:15:00      1.024     0.000     0.607  2494.237
  MAY-03-2014 11:30:00      1.125     0.000     0.619  2494.249
  MAY-03-2014 11:45:00      1.078     0.000     0.614  2494.243
  MAY-03-2014 12:00:00      1.062     0.000     0.612  2494.241
  MAY-03-2014 12:15:00      1.119     0.000     0.619  2494.249
  MAY-03-2014 12:30:00      1.114     0.000     0.618  2494.248
  MAY-03-2014 12:45:00      1.047     0.000     0.610  2494.240
  MAY-03-2014 13:00:00      0.988     0.000     0.602  2494.232
  MAY-03-2014 13:15:00      0.935     0.000     0.594  2494.224
  MAY-03-2014 13:30:00      0.889     0.000     0.585  2494.215
  MAY-03-2014 13:45:00      0.849     0.000     0.576  2494.206
  MAY-03-2014 14:00:00      0.816     0.000     0.568  2494.198
  MAY-03-2014 14:15:00      0.787     0.000     0.560  2494.190
  MAY-03-2014 14:30:00      0.788     0.000     0.560  2494.190
  MAY-03-2014 14:45:00      0.764     0.000     0.554  2494.184
  MAY-03-2014 15:00:00      0.727     0.000     0.527  2494.157
  MAY-03-2014 15:15:00      0.700     0.000     0.507  2494.137
  MAY-03-2014 15:30:00      0.684     0.000     0.496  2494.126
  MAY-03-2014 15:45:00      0.675     0.000     0.491  2494.121
  MAY-03-2014 16:00:00      0.670     0.000     0.488  2494.118
  MAY-03-2014 16:15:00      0.667     0.000     0.486  2494.116
  MAY-03-2014 16:30:00      0.665     0.000     0.485  2494.115
  MAY-03-2014 16:45:00      0.664     0.000     0.484  2494.114
  MAY-03-2014 17:00:00      0.663     0.000     0.484  2494.114
  MAY-03-2014 17:15:00      0.662     0.000     0.483  2494.113
  MAY-03-2014 17:30:00      0.662     0.000     0.483  2494.113
  MAY-03-2014 17:45:00      0.661     0.000     0.482  2494.112
  MAY-03-2014 18:00:00      0.660     0.000     0.482  2494.112
  
  
  <<< Node DES-3 >>>
  ----------------------------------------------------------------
                           Inflow  Flooding     Depth      Head
  Date        Time            CMS       CMS    meters    meters
  ----------------------------------------------------------------
  MAY-03-2014 00:15:00      0.000     0.000     0.000  2493.130
  MAY-03-2014 00:30:00      0.000     0.000     0.000  2493.130
  MAY-03-2014 00:45:00      0.000     0.000     0.000  2493.130
  MAY-03-2014 01:00:00      0.022     0.000     0.077  2493.207
  MAY-03-2014 01:15:00      0.178     0.000     0.217  2493.347
  MAY-03-2014 01:30:00      0.384     0.000     0.330  2493.460
  MAY-03-2014 01:45:00      0.508     0.000     0.390  2493.520
  MAY-03-2014 02:00:00      0.564     0.000     0.417  2493.547
  MAY-03-2014 02:15:00      0.589     0.000     0.429  2493.559
  MAY-03-2014 02:30:00      0.600     0.000     0.434  2493.564
  MAY-03-2014 02:45:00      0.605     0.000     0.436  2493.566
  MAY-03-2014 03:00:00      0.607     0.000     0.437  2493.567
  MAY-03-2014 03:15:00      0.608     0.000     0.438  2493.568
  MAY-03-2014 03:30:00      0.608     0.000     0.438  2493.568
  MAY-03-2014 03:45:00      0.609     0.000     0.438  2493.568
  MAY-03-2014 04:00:00      0.609     0.000     0.438  2493.568
  MAY-03-2014 04:15:00      0.618     0.000     0.443  2493.573
  MAY-03-2014 04:30:00      0.687     0.000     0.477  2493.607
  MAY-03-2014 04:45:00      0.879     0.000     0.586  2493.716
  MAY-03-2014 05:00:00      0.973     0.000     0.610  2493.740
  MAY-03-2014 05:15:00      1.146     0.000     0.644  2493.774
  MAY-03-2014 05:30:00      1.327     0.000     0.664  2493.794
  MAY-03-2014 05:45:00      1.193     0.000     0.649  2493.779
  MAY-03-2014 06:00:00      1.175     0.000     0.647  2493.777
  MAY-03-2014 06:15:00      1.198     0.000     0.650  2493.780
  MAY-03-2014 06:30:00      1.259     0.000     0.656  2493.786
  MAY-03-2014 06:45:00      1.175     0.000     0.647  2493.777
  MAY-03-2014 07:00:00      1.263     0.000     0.657  2493.787
  MAY-03-2014 07:15:00      1.171     0.000     0.647  2493.777
  MAY-03-2014 07:30:00      1.200     0.000     0.650  2493.780
  MAY-03-2014 07:45:00      1.190     0.000     0.649  2493.779
  MAY-03-2014 08:00:00      1.178     0.000     0.647  2493.777
  MAY-03-2014 08:15:00      1.382     0.000     0.670  2493.800
  MAY-03-2014 08:30:00      1.176     0.000     0.647  2493.777
  MAY-03-2014 08:45:00      1.380     0.000     0.670  2493.800
  MAY-03-2014 09:00:00      1.362     0.000     0.668  2493.798
  MAY-03-2014 09:15:00      1.341     0.000     0.665  2493.795
  MAY-03-2014 09:30:00      1.315     0.000     0.663  2493.792
  MAY-03-2014 09:45:00      1.297     0.000     0.661  2493.791
  MAY-03-2014 10:00:00      1.365     0.000     0.668  2493.798
  MAY-03-2014 10:15:00      1.271     0.000     0.658  2493.788
  MAY-03-2014 10:30:00      1.305     0.000     0.662  2493.792
  MAY-03-2014 10:45:00      1.368     0.000     0.669  2493.798
  MAY-03-2014 11:00:00      1.314     0.000     0.663  2493.792
  MAY-03-2014 11:15:00      1.262     0.000     0.657  2493.787
  MAY-03-2014 11:30:00      1.212     0.000     0.651  2493.781
  MAY-03-2014 11:45:00      1.164     0.000     0.646  2493.776
  MAY-03-2014 12:00:00      1.117     0.000     0.638  2493.768
  MAY-03-2014 12:15:00      1.072     0.000     0.630  2493.760
  MAY-03-2014 12:30:00      1.030     0.000     0.622  2493.752
  MAY-03-2014 12:45:00      0.990     0.000     0.614  2493.744
  MAY-03-2014 13:00:00      0.952     0.000     0.605  2493.734
  MAY-03-2014 13:15:00      0.918     0.000     0.596  2493.726
  MAY-03-2014 13:30:00      0.887     0.000     0.588  2493.718
  MAY-03-2014 13:45:00      0.874     0.000     0.584  2493.714
  MAY-03-2014 14:00:00      0.783     0.000     0.530  2493.660
  MAY-03-2014 14:15:00      0.711     0.000     0.490  2493.620
  MAY-03-2014 14:30:00      0.671     0.000     0.469  2493.599
  MAY-03-2014 14:45:00      0.650     0.000     0.458  2493.588
  MAY-03-2014 15:00:00      0.639     0.000     0.453  2493.583
  MAY-03-2014 15:15:00      0.633     0.000     0.450  2493.580
  MAY-03-2014 15:30:00      0.630     0.000     0.449  2493.578
  MAY-03-2014 15:45:00      0.628     0.000     0.448  2493.577
  MAY-03-2014 16:00:00      0.626     0.000     0.447  2493.577
  MAY-03-2014 16:15:00      0.625     0.000     0.446  2493.576
  MAY-03-2014 16:30:00      0.624     0.000     0.446  2493.576
  MAY-03-2014 16:45:00      0.624     0.000     0.445  2493.575
  MAY-03-2014 17:00:00      0.623     0.000     0.445  2493.575
  MAY-03-2014 17:15:00      0.622     0.000     0.445  2493.575
  MAY-03-2014 17:30:00      0.622     0.000     0.444  2493.574
  MAY-03-2014 17:45:00      0.621     0.000     0.444  2493.574
  MAY-03-2014 18:00:00      0.620     0.000     0.444  2493.574
  
  
  <<< Node V-1 >>>
[...]
  MAY-03-2014 17:15:00      0.622     2.391     0.448     0.676
  MAY-03-2014 17:30:00      0.622     2.390     0.448     0.676
  MAY-03-2014 17:45:00      0.621     2.390     0.448     0.675
  MAY-03-2014 18:00:00      0.620     2.389     0.447     0.675
  
  
  <<< Link C-11 >>>
  ----------------------------------------------------------------
                             Flow  Velocity     Depth  Capacity/
  Date        Time            CMS     m/sec    meters   Setting 
  ----------------------------------------------------------------
  MAY-03-2014 00:15:00      0.000     0.000     0.001     0.000
  MAY-03-2014 00:30:00      0.073     0.419     0.058     0.029
  MAY-03-2014 00:45:00      1.399     1.363     0.342     0.171
  MAY-03-2014 01:00:00      2.060     1.424     0.482     0.241
  MAY-03-2014 01:15:00      2.055     1.344     0.510     0.255
  MAY-03-2014 01:30:00      2.017     1.316     0.511     0.255
  MAY-03-2014 01:45:00      2.002     1.310     0.509     0.255
  MAY-03-2014 02:00:00      1.999     1.310     0.509     0.254
  MAY-03-2014 02:15:00      1.999     1.310     0.509     0.254
  MAY-03-2014 02:30:00      2.000     1.310     0.509     0.254
  MAY-03-2014 02:45:00      2.000     1.311     0.509     0.254
  MAY-03-2014 03:00:00      2.000     1.310     0.509     0.254
  MAY-03-2014 03:15:00      2.000     1.310     0.509     0.254
  MAY-03-2014 03:30:00      2.000     1.310     0.509     0.254
  MAY-03-2014 03:45:00      2.001     1.311     0.509     0.254
  MAY-03-2014 04:00:00      2.052     1.328     0.515     0.257
  MAY-03-2014 04:15:00      2.519     1.468     0.572     0.286
  MAY-03-2014 04:30:00      3.931     1.744     0.751     0.376
  MAY-03-2014 04:45:00      6.333     2.045     1.032     0.516
  MAY-03-2014 05:00:00      8.909     2.259     1.315     0.657
  MAY-03-2014 05:15:00     10.556     2.330     1.510     0.755
  MAY-03-2014 05:30:00     10.561     2.274     1.548     0.774
  MAY-03-2014 05:45:00      9.287     1.976     1.566     0.783
  MAY-03-2014 06:00:00      8.362     1.929     1.445     0.722
  MAY-03-2014 06:15:00      6.900     1.633     1.408     0.704
  MAY-03-2014 06:30:00      6.356     1.633     1.297     0.649
  MAY-03-2014 06:45:00      5.779     1.620     1.189     0.594
  MAY-03-2014 07:00:00      5.217     1.600     1.087     0.543
  MAY-03-2014 07:15:00      4.651     1.563     0.992     0.496
  MAY-03-2014 07:30:00      4.157     1.528     0.907     0.453
  MAY-03-2014 07:45:00      3.783     1.503     0.839     0.419
  MAY-03-2014 08:00:00      3.492     1.480     0.786     0.393
  MAY-03-2014 08:15:00      3.264     1.519     0.716     0.358
  MAY-03-2014 08:30:00      3.082     1.496     0.687     0.343
  MAY-03-2014 08:45:00      2.933     1.474     0.663     0.332
  MAY-03-2014 09:00:00      2.812     1.454     0.644     0.322
  MAY-03-2014 09:15:00      2.710     1.471     0.614     0.307
  MAY-03-2014 09:30:00      2.625     1.457     0.601     0.300
  MAY-03-2014 09:45:00      2.552     1.438     0.591     0.296
  MAY-03-2014 10:00:00      2.489     1.425     0.582     0.291
  MAY-03-2014 10:15:00      2.436     1.411     0.575     0.288
  MAY-03-2014 10:30:00      2.389     1.399     0.569     0.284
  MAY-03-2014 10:45:00      2.348     1.390     0.563     0.281
  MAY-03-2014 11:00:00      2.312     1.382     0.557     0.279
  MAY-03-2014 11:15:00      2.260     1.370     0.550     0.275
  MAY-03-2014 11:30:00      2.222     1.362     0.544     0.272
  MAY-03-2014 11:45:00      2.199     1.357     0.540     0.270
  MAY-03-2014 12:00:00      2.181     1.353     0.537     0.269
  MAY-03-2014 12:15:00      2.164     1.349     0.535     0.267
  MAY-03-2014 12:30:00      2.148     1.346     0.532     0.266
  MAY-03-2014 12:45:00      2.134     1.342     0.530     0.265
  MAY-03-2014 13:00:00      2.121     1.339     0.528     0.264
  MAY-03-2014 13:15:00      2.110     1.337     0.526     0.263
  MAY-03-2014 13:30:00      2.100     1.334     0.525     0.262
  MAY-03-2014 13:45:00      2.091     1.332     0.523     0.262
  MAY-03-2014 14:00:00      2.084     1.331     0.522     0.261
  MAY-03-2014 14:15:00      2.077     1.329     0.521     0.260
  MAY-03-2014 14:30:00      2.071     1.328     0.520     0.260
  MAY-03-2014 14:45:00      2.066     1.326     0.519     0.260
  MAY-03-2014 15:00:00      2.061     1.325     0.518     0.259
  MAY-03-2014 15:15:00      2.058     1.325     0.518     0.259
  MAY-03-2014 15:30:00      2.055     1.324     0.517     0.259
  MAY-03-2014 15:45:00      2.052     1.323     0.517     0.258
  MAY-03-2014 16:00:00      2.049     1.323     0.516     0.258
  MAY-03-2014 16:15:00      2.047     1.322     0.516     0.258
  MAY-03-2014 16:30:00      2.045     1.321     0.516     0.258
  MAY-03-2014 16:45:00      2.042     1.321     0.515     0.258
  MAY-03-2014 17:00:00      2.040     1.320     0.515     0.258
  MAY-03-2014 17:15:00      2.038     1.320     0.515     0.257
  MAY-03-2014 17:30:00      2.037     1.320     0.514     0.257
  MAY-03-2014 17:45:00      2.035     1.319     0.514     0.257
  MAY-03-2014 18:00:00      2.033     1.319     0.514     0.257
  
  
  <<< Link R-4 >>>
  ----------------------------------------------------------------
                             Flow  Velocity     Depth  Capacity/
  Date        Time            CMS     m/sec    meters   Setting 
  ----------------------------------------------------------------
  MAY-03-2014 00:15:00      0.000     0.000     0.000     1.000
  MAY-03-2014 00:30:00      0.002     0.000     0.009     1.000
  MAY-03-2014 00:45:00      0.352     0.000     0.270     1.000
  MAY-03-2014 01:00:00      0.675     0.000     0.474     1.000
  MAY-03-2014 01:15:00      0.744     0.000     0.534     1.000
  MAY-03-2014 01:30:00      0.748     0.000     0.542     1.000
  MAY-03-2014 01:45:00      0.744     0.000     0.541     1.000
  MAY-03-2014 02:00:00      0.743     0.000     0.540     1.000
  MAY-03-2014 02:15:00      0.743     0.000     0.540     1.000
  MAY-03-2014 02:30:00      0.743     0.000     0.540     1.000
  MAY-03-2014 02:45:00      0.743     0.000     0.540     1.000
  MAY-03-2014 03:00:00      0.743     0.000     0.540     1.000
  MAY-03-2014 03:15:00      0.743     0.000     0.540     1.000
  MAY-03-2014 03:30:00      0.743     0.000     0.540     1.000
  MAY-03-2014 03:45:00      0.743     0.000     0.540     1.000
  MAY-03-2014 04:00:00      0.755     0.000     0.544     1.000
  MAY-03-2014 04:15:00      0.877     0.000     0.585     1.000
  MAY-03-2014 04:30:00      1.303     0.000     0.730     1.000
  MAY-03-2014 04:45:00      2.130     0.000     0.995     1.000
  MAY-03-2014 05:00:00      3.066     0.000     1.272     1.000
  MAY-03-2014 05:15:00      3.770     0.000     1.490     1.000
  MAY-03-2014 05:30:00      3.899     0.000     1.558     1.000
  MAY-03-2014 05:45:00      4.223     0.000     1.685     1.000
  MAY-03-2014 06:00:00      3.780     0.000     1.557     1.000
  MAY-03-2014 06:15:00      3.857     0.000     1.586     1.000
  MAY-03-2014 06:30:00      3.541     0.000     1.471     1.000
  MAY-03-2014 06:45:00      3.175     0.000     1.356     1.000
  MAY-03-2014 07:00:00      2.806     0.000     1.245     1.000
  MAY-03-2014 07:15:00      2.444     0.000     1.137     1.000
  MAY-03-2014 07:30:00      2.102     0.000     1.031     1.000
  MAY-03-2014 07:45:00      1.832     0.000     0.944     1.000
  MAY-03-2014 08:00:00      1.640     0.000     0.879     1.000
  MAY-03-2014 08:15:00      1.321     0.000     0.770     1.000
  MAY-03-2014 08:30:00      1.233     0.000     0.736     1.000
  MAY-03-2014 08:45:00      1.166     0.000     0.710     1.000
  MAY-03-2014 09:00:00      1.112     0.000     0.690     1.000
  MAY-03-2014 09:15:00      0.984     0.000     0.643     1.000
  MAY-03-2014 09:30:00      0.956     0.000     0.629     1.000
  MAY-03-2014 09:45:00      0.938     0.000     0.621     1.000
  MAY-03-2014 10:00:00      0.916     0.000     0.613     1.000
  MAY-03-2014 10:15:00      0.902     0.000     0.607     1.000
  MAY-03-2014 10:30:00      0.887     0.000     0.601     1.000
  MAY-03-2014 10:45:00      0.872     0.000     0.595     1.000
  MAY-03-2014 11:00:00      0.859     0.000     0.590     1.000
  MAY-03-2014 11:15:00      0.842     0.000     0.583     1.000
  MAY-03-2014 11:30:00      0.827     0.000     0.577     1.000
  MAY-03-2014 11:45:00      0.817     0.000     0.572     1.000
  MAY-03-2014 12:00:00      0.810     0.000     0.569     1.000
  MAY-03-2014 12:15:00      0.804     0.000     0.566     1.000
  MAY-03-2014 12:30:00      0.798     0.000     0.564     1.000
  MAY-03-2014 12:45:00      0.793     0.000     0.562     1.000
  MAY-03-2014 13:00:00      0.788     0.000     0.560     1.000
  MAY-03-2014 13:15:00      0.784     0.000     0.558     1.000
  MAY-03-2014 13:30:00      0.780     0.000     0.556     1.000
  MAY-03-2014 13:45:00      0.777     0.000     0.555     1.000
  MAY-03-2014 14:00:00      0.774     0.000     0.554     1.000
  MAY-03-2014 14:15:00      0.772     0.000     0.553     1.000
  MAY-03-2014 14:30:00      0.769     0.000     0.552     1.000
  MAY-03-2014 14:45:00      0.767     0.000     0.551     1.000
  MAY-03-2014 15:00:00      0.766     0.000     0.550     1.000
  MAY-03-2014 15:15:00      0.764     0.000     0.550     1.000
  MAY-03-2014 15:30:00      0.763     0.000     0.549     1.000
  MAY-03-2014 15:45:00      0.762     0.000     0.549     1.000
  MAY-03-2014 16:00:00      0.761     0.000     0.548     1.000
  MAY-03-2014 16:15:00      0.760     0.000     0.548     1.000
  MAY-03-2014 16:30:00      0.759     0.000     0.547     1.000
  MAY-03-2014 16:45:00      0.759     0.000     0.547     1.000
  MAY-03-2014 17:00:00      0.758     0.000     0.547     1.000
  MAY-03-2014 17:15:00      0.757     0.000     0.546     1.000
  MAY-03-2014 17:30:00      0.756     0.000     0.546     1.000
  MAY-03-2014 17:45:00      0.756     0.000     0.546     1.000
  MAY-03-2014 18:00:00      0.755     0.000     0.546     1.000
  
  
  <<< Link R-5 >>>
  ----------------------------------------------------------------
                             Flow  Velocity     Depth  Capacity/
  Date        Time            CMS     m/sec    meters   Setting 
  ----------------------------------------------------------------
  MAY-03-2014 00:15:00      0.000     0.000     0.000     1.000
  MAY-03-2014 00:30:00      0.002     0.000     0.009     1.000
  MAY-03-2014 00:45:00      0.360     0.000     0.270     1.000
  MAY-03-2014 01:00:00      0.665     0.000     0.474     1.000
  MAY-03-2014 01:15:00      0.672     0.000     0.534     1.000
  MAY-03-2014 01:30:00      0.655     0.000     0.542     1.000
  MAY-03-2014 01:45:00      0.649     0.000     0.541     1.000
  MAY-03-2014 02:00:00      0.648     0.000     0.540     1.000
  MAY-03-2014 02:15:00      0.648     0.000     0.540     1.000
  MAY-03-2014 02:30:00      0.648     0.000     0.540     1.000
  MAY-03-2014 02:45:00      0.648     0.000     0.540     1.000
  MAY-03-2014 03:00:00      0.648     0.000     0.540     1.000
  MAY-03-2014 03:15:00      0.648     0.000     0.540     1.000
  MAY-03-2014 03:30:00      0.648     0.000     0.540     1.000
  MAY-03-2014 03:45:00      0.648     0.000     0.540     1.000
  MAY-03-2014 04:00:00      0.661     0.000     0.544     1.000
  MAY-03-2014 04:15:00      0.789     0.000     0.585     1.000
  MAY-03-2014 04:30:00      1.214     0.000     0.730     1.000
  MAY-03-2014 04:45:00      2.000     0.000     0.995     1.000
  MAY-03-2014 05:00:00      2.838     0.000     1.272     1.000
  MAY-03-2014 05:15:00      3.387     0.000     1.490     1.000
  MAY-03-2014 05:30:00      3.386     0.000     1.558     1.000
  MAY-03-2014 05:45:00      1.658     0.000     0.400     0.200
  MAY-03-2014 06:00:00      1.587     0.000     0.400     0.200
  MAY-03-2014 06:15:00      1.610     0.000     0.400     0.200
  MAY-03-2014 06:30:00      1.520     0.000     0.400     0.200
  MAY-03-2014 06:45:00      1.425     0.000     0.400     0.200
  MAY-03-2014 07:00:00      1.329     0.000     0.400     0.200
  MAY-03-2014 07:15:00      1.231     0.000     0.400     0.200
  MAY-03-2014 07:30:00      1.130     0.000     0.400     0.200
  MAY-03-2014 07:45:00      1.043     0.000     0.400     0.200
  MAY-03-2014 08:00:00      0.976     0.000     0.400     0.200
  MAY-03-2014 08:15:00      0.855     0.000     0.400     0.200
  MAY-03-2014 08:30:00      0.819     0.000     0.400     0.200
  MAY-03-2014 08:45:00      0.790     0.000     0.400     0.200
  MAY-03-2014 09:00:00      0.766     0.000     0.400     0.200
  MAY-03-2014 09:15:00      0.898     0.000     0.643     1.000
  MAY-03-2014 09:30:00      0.863     0.000     0.629     1.000
  MAY-03-2014 09:45:00      0.847     0.000     0.621     1.000
  MAY-03-2014 10:00:00      0.827     0.000     0.613     1.000
  MAY-03-2014 10:15:00      0.793     0.000     0.607     1.000
  MAY-03-2014 10:30:00      0.776     0.000     0.601     1.000
  MAY-03-2014 10:45:00      0.763     0.000     0.595     1.000
  MAY-03-2014 11:00:00      0.751     0.000     0.590     1.000
  MAY-03-2014 11:15:00      0.735     0.000     0.583     1.000
  MAY-03-2014 11:30:00      0.721     0.000     0.577     1.000
  MAY-03-2014 11:45:00      0.714     0.000     0.572     1.000
  MAY-03-2014 12:00:00      0.708     0.000     0.569     1.000
  MAY-03-2014 12:15:00      0.702     0.000     0.566     1.000
  MAY-03-2014 12:30:00      0.697     0.000     0.564     1.000
  MAY-03-2014 12:45:00      0.692     0.000     0.562     1.000
  MAY-03-2014 13:00:00      0.688     0.000     0.560     1.000
  MAY-03-2014 13:15:00      0.684     0.000     0.558     1.000
  MAY-03-2014 13:30:00      0.681     0.000     0.556     1.000
  MAY-03-2014 13:45:00      0.678     0.000     0.555     1.000
  MAY-03-2014 14:00:00      0.676     0.000     0.554     1.000
  MAY-03-2014 14:15:00      0.674     0.000     0.553     1.000
  MAY-03-2014 14:30:00      0.672     0.000     0.552     1.000
  MAY-03-2014 14:45:00      0.670     0.000     0.551     1.000
  MAY-03-2014 15:00:00      0.668     0.000     0.550     1.000
  MAY-03-2014 15:15:00      0.667     0.000     0.550     1.000
  MAY-03-2014 15:30:00      0.666     0.000     0.549     1.000
  MAY-03-2014 15:45:00      0.665     0.000     0.549     1.000
  MAY-03-2014 16:00:00      0.664     0.000     0.548     1.000
  MAY-03-2014 16:15:00      0.664     0.000     0.548     1.000
  MAY-03-2014 16:30:00      0.663     0.000     0.547     1.000
  MAY-03-2014 16:45:00      0.662     0.000     0.547     1.000
  MAY-03-2014 17:00:00      0.661     0.000     0.547     1.000
  MAY-03-2014 17:15:00      0.661     0.000     0.546     1.000
  MAY-03-2014 17:30:00      0.660     0.000     0.546     1.000
  MAY-03-2014 17:45:00      0.660     0.000     0.546     1.000
  MAY-03-2014 18:00:00      0.659     0.000     0.546     1.000
  
  
  <<< Link R-6 >>>
  ----------------------------------------------------------------
                             Flow  Velocity     Depth  Capacity/
  Date        Time            CMS     m/sec    meters   Setting 
  ----------------------------------------------------------------
  MAY-03-2014 00:15:00      0.000     0.000     0.000     1.000
  MAY-03-2014 00:30:00      0.002     0.000     0.009     1.000
  MAY-03-2014 00:45:00      0.323     0.000     0.270     1.000
  MAY-03-2014 01:00:00      0.564     0.000     0.474     1.000
  MAY-03-2014 01:15:00      0.611     0.000     0.534     1.000
  MAY-03-2014 01:30:00      0.613     0.000     0.542     1.000
  MAY-03-2014 01:45:00      0.610     0.000     0.541     1.000
  MAY-03-2014 02:00:00      0.609     0.000     0.540     1.000
  MAY-03-2014 02:15:00      0.609     0.000     0.540     1.000
  MAY-03-2014 02:30:00      0.609     0.000     0.540     1.000
  MAY-03-2014 02:45:00      0.609     0.000     0.540     1.000
  MAY-03-2014 03:00:00      0.609     0.000     0.540     1.000
  MAY-03-2014 03:15:00      0.609     0.000     0.540     1.000
  MAY-03-2014 03:30:00      0.609     0.000     0.540     1.000
  MAY-03-2014 03:45:00      0.609     0.000     0.540     1.000
  MAY-03-2014 04:00:00      0.621     0.000     0.544     1.000
  MAY-03-2014 04:15:00      0.737     0.000     0.585     1.000
  MAY-03-2014 04:30:00      1.124     0.000     0.730     1.000
  MAY-03-2014 04:45:00      1.849     0.000     0.995     1.000
  MAY-03-2014 05:00:00      2.651     0.000     1.272     1.000
  MAY-03-2014 05:15:00      3.205     0.000     1.490     1.000
  MAY-03-2014 05:30:00      3.283     0.000     1.558     1.000
  MAY-03-2014 05:45:00      3.510     0.000     1.685     1.000
  MAY-03-2014 06:00:00      3.223     0.000     1.557     1.000
  MAY-03-2014 06:15:00      1.577     0.000     0.400     0.200
  MAY-03-2014 06:30:00      1.460     0.000     0.400     0.200
  MAY-03-2014 06:45:00      1.329     0.000     0.400     0.200
  MAY-03-2014 07:00:00      1.216     0.000     0.400     0.200
  MAY-03-2014 07:15:00      1.124     0.000     0.400     0.200
  MAY-03-2014 07:30:00      1.048     0.000     0.400     0.200
  MAY-03-2014 07:45:00      1.008     0.000     0.400     0.200
  MAY-03-2014 08:00:00      0.947     0.000     0.400     0.200
  MAY-03-2014 08:15:00      1.145     0.000     0.770     1.000
  MAY-03-2014 08:30:00      1.066     0.000     0.736     1.000
  MAY-03-2014 08:45:00      1.007     0.000     0.710     1.000
  MAY-03-2014 09:00:00      0.958     0.000     0.690     1.000
  MAY-03-2014 09:15:00      0.851     0.000     0.643     1.000
  MAY-03-2014 09:30:00      0.821     0.000     0.629     1.000
  MAY-03-2014 09:45:00      0.777     0.000     0.621     1.000
  MAY-03-2014 10:00:00      0.758     0.000     0.613     1.000
  MAY-03-2014 10:15:00      0.746     0.000     0.607     1.000
  MAY-03-2014 10:30:00      0.733     0.000     0.601     1.000
  MAY-03-2014 10:45:00      0.720     0.000     0.595     1.000
  MAY-03-2014 11:00:00      0.709     0.000     0.590     1.000
  MAY-03-2014 11:15:00      0.694     0.000     0.583     1.000
  MAY-03-2014 11:30:00      0.681     0.000     0.577     1.000
  MAY-03-2014 11:45:00      0.673     0.000     0.572     1.000
  MAY-03-2014 12:00:00      0.667     0.000     0.569     1.000
  MAY-03-2014 12:15:00      0.661     0.000     0.566     1.000
  MAY-03-2014 12:30:00      0.656     0.000     0.564     1.000
  MAY-03-2014 12:45:00      0.652     0.000     0.562     1.000
  MAY-03-2014 13:00:00      0.648     0.000     0.560     1.000
  MAY-03-2014 13:15:00      0.644     0.000     0.558     1.000
  MAY-03-2014 13:30:00      0.641     0.000     0.556     1.000
  MAY-03-2014 13:45:00      0.638     0.000     0.555     1.000
  MAY-03-2014 14:00:00      0.635     0.000     0.554     1.000
  MAY-03-2014 14:15:00      0.633     0.000     0.553     1.000
  MAY-03-2014 14:30:00      0.631     0.000     0.552     1.000
  MAY-03-2014 14:45:00      0.630     0.000     0.551     1.000
  MAY-03-2014 15:00:00      0.628     0.000     0.550     1.000
  MAY-03-2014 15:15:00      0.627     0.000     0.550     1.000
  MAY-03-2014 15:30:00      0.626     0.000     0.549     1.000
  MAY-03-2014 15:45:00      0.625     0.000     0.549     1.000
  MAY-03-2014 16:00:00      0.624     0.000     0.548     1.000
  MAY-03-2014 16:15:00      0.624     0.000     0.548     1.000
  MAY-03-2014 16:30:00      0.623     0.000     0.547     1.000
  MAY-03-2014 16:45:00      0.622     0.000     0.547     1.000
  MAY-03-2014 17:00:00      0.621     0.000     0.547     1.000
  MAY-03-2014 17:15:00      0.621     0.000     0.546     1.000
  MAY-03-2014 17:30:00      0.620     0.000     0.546     1.000
  MAY-03-2014 17:45:00      0.620     0.000     0.546     1.000
  MAY-03-2014 18:00:00      0.619     0.000     0.546     1.000
  

  Analysis begun on:  Thu Oct 29 13:40:32 2015
  Analysis ended on:  Thu Oct 29 13:40:33 2015
  Total elapsed time: 00:00:01