
  EPA STORM WATER MANAGEMENT MODEL - VERSION 5.1 (Build 5.1.006)
  --------------------------------------------------------------

  
  *********************************************************
  NOTE: The summary statistics displayed in this report are
  based on results found at every computational time step,  
  not just on results from each reporting time step.
  *********************************************************
  
  ****************
  Analysis Options
  ****************
  Flow Units ............... CMS
  Process Models:
    Rainfall/Runoff ........ YES
    RDII ................... NO
    Snowmelt ............... NO
    Groundwater ............ NO
    Flow Routing ........... YES
    Ponding Allowed ........ NO
    Water Quality .......... NO
  Infiltration Method ...... HORTON
  Flow Routing Method ...... DYNWAVE
  Starting Date ............ MAY-03-2014 00:00:00
  Ending Date .............. MAY-03-2014 18:00:00
  Antecedent Dry Days ...... 0.0
  Report Time Step ......... 00:15:00
  Wet Time Step ............ 00:05:00
  Dry Time Step ............ 01:00:00
  Routing Time Step ........ 30.00 sec
  Variable Time Step ....... YES
  Maximum Trials ........... 8
  Head Tolerance ........... 0.005000 m
  
  
  **************************        Volume         Depth
  Runoff Quantity Continuity     hectare-m            mm
  **************************     ---------       -------
  Total Precipitation ......         9.291        30.644
  Evaporation Loss .........         0.000         0.000
  Infiltration Loss ........         1.898         6.259
  Surface Runoff ...........         7.153        23.591
  Final Surface Storage ....         0.249         0.821
  Continuity Error (%) .....        -0.089
  
  
  **************************        Volume        Volume
  Flow Routing Continuity        hectare-m      10^6 ltr
  **************************     ---------     ---------
  Dry Weather Inflow .......         0.000         0.000
  Wet Weather Inflow .......         7.152        71.516
  Groundwater Inflow .......         0.000         0.000
  RDII Inflow ..............         0.000         0.000
  External Inflow ..........        12.959       129.587
  External Outflow .........        18.238       182.382
  Internal Outflow .........         0.629         6.288
  Evaporation Loss .........         0.000         0.000
  Seepage Loss .............         0.000         0.000
  Initial Stored Volume ....         0.000         0.001
  Final Stored Volume ......         1.210        12.100
  Continuity Error (%) .....         0.166
  
  
  *************************
  Highest Continuity Errors
  *************************
  Node N-13 (2.22%)
  Node V-2 (-1.51%)
  Node N-15 (1.26%)
  
  
  ***************************
  Time-Step Critical Elements
  ***************************
  None
  
  
  ********************************
  Highest Flow Instability Indexes
  ********************************
  Link C-10 (28)
  Link C-9 (10)
  Link C-7 (2)
  
  
  *************************
  Routing Time Step Summary
  *************************
  Minimum Time Step           :    30.00 sec
  Average Time Step           :    29.99 sec
  Maximum Time Step           :    30.00 sec
  Percent in Steady State     :     0.00
  Average Iterations per Step :     2.00
  Percent Not Converging      :     0.05
  
  
  ***************************
  Subcatchment Runoff Summary
  ***************************
  
  --------------------------------------------------------------------------------------------------------
                            Total      Total      Total      Total      Total       Total     Peak  Runoff
                           Precip      Runon       Evap      Infil     Runoff      Runoff   Runoff   Coeff
  Subcatchment                 mm         mm         mm         mm         mm    10^6 ltr      CMS
  --------------------------------------------------------------------------------------------------------
  C-2                       26.96       0.00       0.00      13.82      11.77       11.53     2.48   0.437
  C-3                       40.08       0.00       0.00       5.08      34.55       27.71     5.63   0.862
  C-4                       26.96       0.00       0.00       1.02      25.34       30.40     5.66   0.940
  C-5                       40.07       0.00       0.00       2.56      37.59        1.88     0.60   0.938
  
  
  ******************
  Node Depth Summary
  ******************
  
  ---------------------------------------------------------------------
                                 Average  Maximum  Maximum  Time of Max
                                   Depth    Depth      HGL   Occurrence
  Node                 Type       Meters   Meters   Meters  days hr:min
  ---------------------------------------------------------------------
  N-5                  JUNCTION     0.24     0.55  2500.55     0  05:02
  N-6                  JUNCTION     0.31     1.21  2500.20     0  05:22
  N-7                  JUNCTION     0.61     1.55  2500.19     0  05:23
  N-9                  JUNCTION     0.66     1.56  2499.56     0  05:29
  N-13                 JUNCTION     0.56     1.33  2499.33     0  05:32
  N-14                 JUNCTION     0.52     1.21  2499.21     0  05:32
  N-15                 JUNCTION     0.58     1.34  2499.34     0  05:31
  DES-1                OUTFALL      0.55     0.82  2492.82     0  06:55
  DES-2                OUTFALL      0.53     0.65  2494.28     0  05:42
  DES-3                OUTFALL      0.52     0.67  2493.80     0  05:36
  V-1                  STORAGE      0.83     2.25  2495.25     0  06:54
  V-2                  STORAGE      1.73     4.00  2498.28     0  05:46
  V-3                  STORAGE      1.61     4.50  2498.78     0  06:29
  
  
  *******************
  Node Inflow Summary
  *******************
  
  -------------------------------------------------------------------------------------------------
                                  Maximum  Maximum                  Lateral       Total        Flow
                                  Lateral    Total  Time of Max      Inflow      Inflow     Balance
                                   Inflow   Inflow   Occurrence      Volume      Volume       Error
  Node                 Type           CMS      CMS  days hr:min    10^6 ltr    10^6 ltr     Percent
  -------------------------------------------------------------------------------------------------
  N-5                  JUNCTION    11.226   11.226     0  04:55         190         190       0.729
  N-6                  JUNCTION     2.484   13.352     0  04:59        11.5         200       0.993
  N-7                  JUNCTION     0.000   10.951     0  05:14           0         198       0.778
  N-9                  JUNCTION     0.000   10.735     0  05:22           0         196       0.321
  N-13                 JUNCTION     0.000    3.443     0  05:22           0        64.4       2.273
  N-14                 JUNCTION     0.000    3.917     0  05:24           0        72.2       0.685
  N-15                 JUNCTION     0.000    3.303     0  05:24           0        59.1       1.274
  DES-1                OUTFALL      0.000    2.119     0  06:55           0        68.8       0.000
  DES-2                OUTFALL      0.000    1.350     0  06:26           0        57.4       0.000
  DES-3                OUTFALL      0.000    1.399     0  05:36           0        56.2       0.000
  V-1                  STORAGE      0.000    3.881     0  05:33           0        71.7       0.349
  V-2                  STORAGE      0.000    3.406     0  05:40           0        62.9      -1.483
  V-3                  STORAGE      0.000    3.276     0  05:32           0        58.3       0.746
  
  
  **********************
  Node Surcharge Summary
  **********************
  
  Surcharging occurs when water rises above the top of the highest conduit.
  ---------------------------------------------------------------------
                                               Max. Height   Min. Depth
                                   Hours       Above Crown    Below Rim
  Node                 Type      Surcharged         Meters       Meters
  ---------------------------------------------------------------------
  V-2                  STORAGE         1.99          0.000        0.000
  V-3                  STORAGE         0.57          0.000        0.000
  
  
  *********************
  Node Flooding Summary
  *********************
  
  Flooding refers to all water that overflows a node, whether it ponds or not.
  --------------------------------------------------------------------------
                                                             Total   Maximum
                                 Maximum   Time of Max       Flood    Ponded
                        Hours       Rate    Occurrence      Volume     Depth
  Node                 Flooded       CMS   days hr:min    10^6 ltr    Meters
  --------------------------------------------------------------------------
  V-2                     1.98     1.888      0  05:46       5.558     0.000
  V-3                     0.57     0.744      0  06:29       0.729     0.000
  
  
  **********************
  Storage Volume Summary
  **********************
  
  --------------------------------------------------------------------------------------------------
                         Average     Avg  Evap Infil       Maximum     Max    Time of Max    Maximum
                          Volume    Pcnt  Pcnt  Pcnt        Volume    Pcnt     Occurrence    Outflow
  Storage Unit           1000 m3    Full  Loss  Loss       1000 m3    Full    days hr:min        CMS
  --------------------------------------------------------------------------------------------------
  V-1                      4.546      17     0     0        12.389      45       0  06:54      2.119
  V-2                      3.120      43     0     0         7.200     100       0  05:46      1.350
  V-3                      3.540      36     0     0         9.900     100       0  06:29      1.399
  
  
  ***********************
  Outfall Loading Summary
  ***********************
  
  -----------------------------------------------------------
                         Flow       Avg       Max       Total
                         Freq      Flow      Flow      Volume
  Outfall Node           Pcnt       CMS       CMS    10^6 ltr
  -----------------------------------------------------------
  DES-1                 95.60     1.110     2.119      68.766
  DES-2                 95.79     0.925     1.350      57.442
  DES-3                 95.84     0.904     1.399      56.173
  -----------------------------------------------------------
  System                95.74     2.939     4.847     182.382
  
  
  ********************
  Link Flow Summary
  ********************
  
  -----------------------------------------------------------------------------
                                 Maximum  Time of Max   Maximum    Max/    Max/
                                  |Flow|   Occurrence   |Veloc|    Full    Full
  Link                 Type          CMS  days hr:min     m/sec    Flow   Depth
  -----------------------------------------------------------------------------
  C-1                  CONDUIT    11.022     0  05:02      1.29    0.04    0.20
  C-2                  CONDUIT    10.951     0  05:14      0.71    0.04    0.32
  C-5                  CONDUIT     3.881     0  05:33      2.74    0.98    0.75
  C-6                  CONDUIT     3.406     0  05:40      2.33    1.07    0.92
  C-7                  CONDUIT     3.276     0  05:32      2.27    1.13    0.83
  C-8                  CONDUIT     2.119     0  06:55      3.38    1.57    0.96
  C-9                  CONDUIT     1.350     0  06:26      4.11    1.84    1.00
  C-10                 CONDUIT     1.399     0  05:36      3.65    1.65    1.00
  C-11                 CONDUIT    10.735     0  05:22      2.33    0.91    0.78
  R-4                  ORIFICE     3.917     0  05:24                      0.78
  R-5                  ORIFICE     3.443     0  05:22                      0.78
  R-6                  ORIFICE     3.303     0  05:24                      0.78
  
  
  ***************************
  Flow Classification Summary
  ***************************
  
  -------------------------------------------------------------------------------------
                      Adjusted    ---------- Fraction of Time in Flow Class ---------- 
                       /Actual         Up    Down  Sub   Sup   Up    Down  Norm  Inlet 
  Conduit               Length    Dry  Dry   Dry   Crit  Crit  Crit  Crit  Ltd   Ctrl  
  -------------------------------------------------------------------------------------
  C-1                     1.00   0.00  0.00  0.00  1.00  0.00  0.00  0.00  0.36  0.00
  C-2                     1.00   0.00  0.00  0.00  1.00  0.00  0.00  0.00  0.59  0.00
  C-5                     1.00   0.02  0.00  0.00  0.00  0.00  0.00  0.98  0.00  0.00
  C-6                     1.00   0.02  0.00  0.00  0.29  0.00  0.00  0.68  0.26  0.00
  C-7                     1.00   0.02  0.00  0.00  0.20  0.00  0.00  0.77  0.08  0.00
  C-8                     1.00   0.04  0.00  0.00  0.39  0.57  0.00  0.00  0.01  0.00
  C-9                     1.00   0.03  0.00  0.00  0.61  0.36  0.00  0.00  0.00  0.00
  C-10                    1.00   0.03  0.00  0.00  0.52  0.45  0.00  0.00  0.00  0.00
  C-11                    1.00   0.01  0.00  0.00  0.99  0.00  0.00  0.00  0.83  0.00
  
  
  *************************
  Conduit Surcharge Summary
  *************************
  
  ----------------------------------------------------------------------------
                                                           Hours        Hours 
                         --------- Hours Full --------   Above Full   Capacity
  Conduit                Both Ends  Upstream  Dnstream   Normal Flow   Limited
  ----------------------------------------------------------------------------
  C-6                         0.01      0.01      0.01      0.45         0.01
  C-7                         0.01      0.01      0.01      0.76         0.01
  C-8                         0.01      0.01      0.01      5.94         0.01
  C-9                         1.91      1.91      2.48     10.82         1.91
  C-10                        2.87      2.87      4.50      9.13         2.87
  
  
  ********************
  Subcatchment Results
  ********************
  
  <<< Subcatchment C-2 >>>
  ---------------------------------------------------
  Date        Time        Precip.    Losses    Runoff
                            mm/hr     mm/hr       CMS
  ---------------------------------------------------
  MAY-03-2014 00:15:00      0.000     0.000    0.0000
  MAY-03-2014 00:30:00      0.000     0.000    0.0000
  MAY-03-2014 00:45:00      0.000     0.000    0.0000
  MAY-03-2014 01:00:00      0.000     0.000    0.0000
  MAY-03-2014 01:15:00      0.000     0.000    0.0000
  MAY-03-2014 01:30:00      0.000     0.000    0.0000
  MAY-03-2014 01:45:00      0.000     0.000    0.0000
  MAY-03-2014 02:00:00      0.000     0.000    0.0000
  MAY-03-2014 02:15:00      0.000     0.000    0.0000
  MAY-03-2014 02:30:00      0.000     0.000    0.0000
  MAY-03-2014 02:45:00      0.000     0.000    0.0000
  MAY-03-2014 03:00:00      0.000     0.000    0.0000
  MAY-03-2014 03:15:00      0.000     0.000    0.0000
  MAY-03-2014 03:30:00      0.000     0.000    0.0000
  MAY-03-2014 03:45:00      0.000     0.000    0.0000
  MAY-03-2014 04:00:00      0.000     0.000    0.0000
  MAY-03-2014 04:15:00      9.900     5.236    0.0397
  MAY-03-2014 04:30:00     25.900     3.479    0.4161
  MAY-03-2014 04:45:00     43.000     2.413    1.4057
  MAY-03-2014 05:00:00     24.000     1.767    2.3479
  MAY-03-2014 05:15:00      4.800     1.374    1.7624
  MAY-03-2014 05:30:00      0.000     1.137    1.0978
  MAY-03-2014 05:45:00      0.000     0.992    0.7515
  MAY-03-2014 06:00:00      0.000     0.905    0.5838
  MAY-03-2014 06:15:00      0.000     0.852    0.4840
  MAY-03-2014 06:30:00      0.000     0.820    0.4157
  MAY-03-2014 06:45:00      0.000     0.800    0.3647
  MAY-03-2014 07:00:00      0.000     0.788    0.3240
  MAY-03-2014 07:15:00      0.000     0.781    0.2902
  MAY-03-2014 07:30:00      0.000     0.777    0.2612
  MAY-03-2014 07:45:00      0.000     0.774    0.2359
  MAY-03-2014 08:00:00      0.000     0.772    0.2136
  MAY-03-2014 08:15:00      0.000     0.771    0.1935
  MAY-03-2014 08:30:00      0.000     0.771    0.1754
  MAY-03-2014 08:45:00      0.000     0.771    0.1589
  MAY-03-2014 09:00:00      0.000     0.770    0.1439
  MAY-03-2014 09:15:00      0.000     0.770    0.1302
  MAY-03-2014 09:30:00      0.000     0.770    0.1176
  MAY-03-2014 09:45:00      0.000     0.770    0.1060
  MAY-03-2014 10:00:00      0.000     0.770    0.0953
  MAY-03-2014 10:15:00      0.000     0.770    0.0854
  MAY-03-2014 10:30:00      0.000     0.770    0.0763
  MAY-03-2014 10:45:00      0.000     0.770    0.0679
  MAY-03-2014 11:00:00      0.000     0.770    0.0601
  MAY-03-2014 11:15:00      0.000     0.770    0.0530
  MAY-03-2014 11:30:00      0.000     0.770    0.0463
  MAY-03-2014 11:45:00      0.000     0.770    0.0402
  MAY-03-2014 12:00:00      0.000     0.770    0.0346
  MAY-03-2014 12:15:00      0.000     0.770    0.0295
  MAY-03-2014 12:30:00      0.000     0.770    0.0248
  MAY-03-2014 12:45:00      0.000     0.770    0.0205
  MAY-03-2014 13:00:00      0.000     0.770    0.0167
  MAY-03-2014 13:15:00      0.000     0.770    0.0132
  MAY-03-2014 13:30:00      0.000     0.770    0.0102
  MAY-03-2014 13:45:00      0.000     0.770    0.0075
  MAY-03-2014 14:00:00      0.000     0.770    0.0052
  MAY-03-2014 14:15:00      0.000     0.770    0.0034
  MAY-03-2014 14:30:00      0.000     0.770    0.0020
  MAY-03-2014 14:45:00      0.000     0.770    0.0012
  MAY-03-2014 15:00:00      0.000     0.770    0.0010
  MAY-03-2014 15:15:00      0.000     0.770    0.0009
  MAY-03-2014 15:30:00      0.000     0.770    0.0009
  MAY-03-2014 15:45:00      0.000     0.770    0.0008
  MAY-03-2014 16:00:00      0.000     0.770    0.0008
  MAY-03-2014 16:15:00      0.000     0.770    0.0008
  MAY-03-2014 16:30:00      0.000     0.770    0.0007
  MAY-03-2014 16:45:00      0.000     0.770    0.0007
  MAY-03-2014 17:00:00      0.000     0.770    0.0006
  MAY-03-2014 17:15:00      0.000     0.770    0.0006
  MAY-03-2014 17:30:00      0.000     0.770    0.0006
  MAY-03-2014 17:45:00      0.000     0.770    0.0006
  MAY-03-2014 18:00:00      0.000     0.770    0.0005
  
  
  <<< Subcatchment C-3 >>>
  ---------------------------------------------------
  Date        Time        Precip.    Losses    Runoff
                            mm/hr     mm/hr       CMS
  ---------------------------------------------------
  MAY-03-2014 00:15:00      0.000     0.000    0.0000
  MAY-03-2014 00:30:00      0.000     0.000    0.0000
  MAY-03-2014 00:45:00      0.000     0.000    0.0000
  MAY-03-2014 01:00:00      0.000     0.000    0.0000
  MAY-03-2014 01:15:00      0.000     0.000    0.0000
  MAY-03-2014 01:30:00      0.000     0.000    0.0000
  MAY-03-2014 01:45:00      0.000     0.000    0.0000
  MAY-03-2014 02:00:00      0.000     0.000    0.0000
  MAY-03-2014 02:15:00      0.000     0.000    0.0000
  MAY-03-2014 02:30:00      0.000     0.000    0.0000
  MAY-03-2014 02:45:00      0.000     0.000    0.0000
  MAY-03-2014 03:00:00      0.000     0.000    0.0000
  MAY-03-2014 03:15:00      0.000     0.000    0.0000
  MAY-03-2014 03:30:00      0.000     0.000    0.0000
  MAY-03-2014 03:45:00     15.500     1.801    0.0539
  MAY-03-2014 04:00:00     43.500     1.201    0.6505
  MAY-03-2014 04:15:00     53.800     0.836    2.9236
  MAY-03-2014 04:30:00     40.300     0.615    5.2425
  MAY-03-2014 04:45:00      6.900     0.482    5.0946
  MAY-03-2014 05:00:00      2.300     0.400    3.5440
  MAY-03-2014 05:15:00      0.000     0.351    2.5146
  MAY-03-2014 05:30:00      0.000     0.321    1.8447
  MAY-03-2014 05:45:00      0.000     0.303    1.4059
  MAY-03-2014 06:00:00      0.000     0.292    1.1031
  MAY-03-2014 06:15:00      0.000     0.285    0.8855
  MAY-03-2014 06:30:00      0.000     0.281    0.7239
  MAY-03-2014 06:45:00      0.000     0.279    0.6006
  MAY-03-2014 07:00:00      0.000     0.277    0.5044
  MAY-03-2014 07:15:00      0.000     0.276    0.4279
  MAY-03-2014 07:30:00      0.000     0.276    0.3662
  MAY-03-2014 07:45:00      0.000     0.276    0.3157
  MAY-03-2014 08:00:00      0.000     0.275    0.2738
  MAY-03-2014 08:15:00      0.000     0.275    0.2387
  MAY-03-2014 08:30:00      0.000     0.275    0.2091
  MAY-03-2014 08:45:00      0.000     0.275    0.1838
  MAY-03-2014 09:00:00      0.000     0.275    0.1622
  MAY-03-2014 09:15:00      0.000     0.275    0.1435
  MAY-03-2014 09:30:00      0.000     0.275    0.1272
  MAY-03-2014 09:45:00      0.000     0.275    0.1130
  MAY-03-2014 10:00:00      0.000     0.275    0.1006
  MAY-03-2014 10:15:00      0.000     0.275    0.0897
  MAY-03-2014 10:30:00      0.000     0.275    0.0801
  MAY-03-2014 10:45:00      0.000     0.275    0.0715
  MAY-03-2014 11:00:00      0.000     0.275    0.0640
  MAY-03-2014 11:15:00      0.000     0.275    0.0573
  MAY-03-2014 11:30:00      0.000     0.275    0.0514
  MAY-03-2014 11:45:00      0.000     0.275    0.0461
  MAY-03-2014 12:00:00      0.000     0.275    0.0414
  MAY-03-2014 12:15:00      0.000     0.275    0.0373
  MAY-03-2014 12:30:00      0.000     0.275    0.0338
  MAY-03-2014 12:45:00      0.000     0.275    0.0307
  MAY-03-2014 13:00:00      0.000     0.275    0.0281
  MAY-03-2014 13:15:00      0.000     0.275    0.0261
  MAY-03-2014 13:30:00      0.000     0.275    0.0245
  MAY-03-2014 13:45:00      0.000     0.275    0.0230
  MAY-03-2014 14:00:00      0.000     0.275    0.0216
  MAY-03-2014 14:15:00      0.000     0.275    0.0204
  MAY-03-2014 14:30:00      0.000     0.275    0.0193
  MAY-03-2014 14:45:00      0.000     0.275    0.0182
  MAY-03-2014 15:00:00      0.000     0.275    0.0172
  MAY-03-2014 15:15:00      0.000     0.275    0.0163
  MAY-03-2014 15:30:00      0.000     0.275    0.0155
  MAY-03-2014 15:45:00      0.000     0.275    0.0147
  MAY-03-2014 16:00:00      0.000     0.275    0.0140
  MAY-03-2014 16:15:00      0.000     0.275    0.0133
  MAY-03-2014 16:30:00      0.000     0.275    0.0127
  MAY-03-2014 16:45:00      0.000     0.275    0.0121
  MAY-03-2014 17:00:00      0.000     0.275    0.0115
  MAY-03-2014 17:15:00      0.000     0.275    0.0110
  MAY-03-2014 17:30:00      0.000     0.275    0.0105
  MAY-03-2014 17:45:00      0.000     0.275    0.0101
  MAY-03-2014 18:00:00      0.000     0.275    0.0096
  
  
  <<< Subcatchment C-4 >>>
  ---------------------------------------------------
  Date        Time        Precip.    Losses    Runoff
                            mm/hr     mm/hr       CMS
  ---------------------------------------------------
  MAY-03-2014 00:15:00      0.000     0.000    0.0000
  MAY-03-2014 00:30:00      0.000     0.000    0.0000
  MAY-03-2014 00:45:00      0.000     0.000    0.0000
  MAY-03-2014 01:00:00      0.000     0.000    0.0000
  MAY-03-2014 01:15:00      0.000     0.000    0.0000
  MAY-03-2014 01:30:00      0.000     0.000    0.0000
  MAY-03-2014 01:45:00      0.000     0.000    0.0000
  MAY-03-2014 02:00:00      0.000     0.000    0.0000
  MAY-03-2014 02:15:00      0.000     0.000    0.0000
  MAY-03-2014 02:30:00      0.000     0.000    0.0000
  MAY-03-2014 02:45:00      0.000     0.000    0.0000
  MAY-03-2014 03:00:00      0.000     0.000    0.0000
  MAY-03-2014 03:15:00      0.000     0.000    0.0000
  MAY-03-2014 03:30:00      0.000     0.000    0.0000
  MAY-03-2014 03:45:00      0.000     0.000    0.0000
  MAY-03-2014 04:00:00      0.000     0.000    0.0000
  MAY-03-2014 04:15:00      9.900     0.680    0.0429
  MAY-03-2014 04:30:00     25.900     0.452    0.5558
  MAY-03-2014 04:45:00     43.000     0.313    2.4692
  MAY-03-2014 05:00:00     24.000     0.229    5.3506
  MAY-03-2014 05:15:00      4.800     0.179    5.2627
  MAY-03-2014 05:30:00      0.000     0.148    3.9353
  MAY-03-2014 05:45:00      0.000     0.129    2.8528
  MAY-03-2014 06:00:00      0.000     0.118    2.1441
  MAY-03-2014 06:15:00      0.000     0.111    1.6581
  MAY-03-2014 06:30:00      0.000     0.106    1.3122
  MAY-03-2014 06:45:00      0.000     0.104    1.0586
  MAY-03-2014 07:00:00      0.000     0.102    0.8677
  MAY-03-2014 07:15:00      0.000     0.101    0.7210
  MAY-03-2014 07:30:00      0.000     0.101    0.6062
  MAY-03-2014 07:45:00      0.000     0.101    0.5149
  MAY-03-2014 08:00:00      0.000     0.100    0.4412
  MAY-03-2014 08:15:00      0.000     0.100    0.3811
  MAY-03-2014 08:30:00      0.000     0.100    0.3315
  MAY-03-2014 08:45:00      0.000     0.100    0.2902
  MAY-03-2014 09:00:00      0.000     0.100    0.2555
  MAY-03-2014 09:15:00      0.000     0.100    0.2262
  MAY-03-2014 09:30:00      0.000     0.100    0.2013
  MAY-03-2014 09:45:00      0.000     0.100    0.1801
  MAY-03-2014 10:00:00      0.000     0.100    0.1619
  MAY-03-2014 10:15:00      0.000     0.100    0.1465
  MAY-03-2014 10:30:00      0.000     0.000    0.1334
  MAY-03-2014 10:45:00      0.000     0.000    0.1219
  MAY-03-2014 11:00:00      0.000     0.000    0.1118
  MAY-03-2014 11:15:00      0.000     0.000    0.1028
  MAY-03-2014 11:30:00      0.000     0.000    0.0948
  MAY-03-2014 11:45:00      0.000     0.000    0.0876
  MAY-03-2014 12:00:00      0.000     0.000    0.0812
  MAY-03-2014 12:15:00      0.000     0.000    0.0754
  MAY-03-2014 12:30:00      0.000     0.000    0.0701
  MAY-03-2014 12:45:00      0.000     0.000    0.0654
  MAY-03-2014 13:00:00      0.000     0.000    0.0611
  MAY-03-2014 13:15:00      0.000     0.000    0.0572
  MAY-03-2014 13:30:00      0.000     0.000    0.0536
  MAY-03-2014 13:45:00      0.000     0.000    0.0504
  MAY-03-2014 14:00:00      0.000     0.000    0.0474
  MAY-03-2014 14:15:00      0.000     0.000    0.0446
  MAY-03-2014 14:30:00      0.000     0.000    0.0421
  MAY-03-2014 14:45:00      0.000     0.000    0.0397
  MAY-03-2014 15:00:00      0.000     0.000    0.0376
  MAY-03-2014 15:15:00      0.000     0.000    0.0356
  MAY-03-2014 15:30:00      0.000     0.000    0.0337
  MAY-03-2014 15:45:00      0.000     0.000    0.0320
  MAY-03-2014 16:00:00      0.000     0.000    0.0304
  MAY-03-2014 16:15:00      0.000     0.000    0.0289
  MAY-03-2014 16:30:00      0.000     0.000    0.0275
  MAY-03-2014 16:45:00      0.000     0.000    0.0262
  MAY-03-2014 17:00:00      0.000     0.000    0.0250
  MAY-03-2014 17:15:00      0.000     0.000    0.0239
  MAY-03-2014 17:30:00      0.000     0.000    0.0228
  MAY-03-2014 17:45:00      0.000     0.000    0.0218
  MAY-03-2014 18:00:00      0.000     0.000    0.0209
  
  
  <<< Subcatchment C-5 >>>
  ---------------------------------------------------
  Date        Time        Precip.    Losses    Runoff
                            mm/hr     mm/hr       CMS
  ---------------------------------------------------
  MAY-03-2014 00:15:00      0.000     0.000    0.0000
  MAY-03-2014 00:30:00      0.000     0.000    0.0000
  MAY-03-2014 00:45:00      0.000     0.000    0.0000
  MAY-03-2014 01:00:00      0.000     0.000    0.0000
  MAY-03-2014 01:15:00      0.000     0.000    0.0000
  MAY-03-2014 01:30:00      0.000     0.000    0.0000
  MAY-03-2014 01:45:00      0.000     0.000    0.0000
  MAY-03-2014 02:00:00      0.000     0.000    0.0000
  MAY-03-2014 02:15:00      0.000     0.000    0.0000
  MAY-03-2014 02:30:00      0.000     0.000    0.0000
  MAY-03-2014 02:45:00      0.000     0.000    0.0000
  MAY-03-2014 03:00:00      0.000     0.000    0.0000
  MAY-03-2014 03:15:00      0.000     0.000    0.0000
  MAY-03-2014 03:30:00      0.000     0.000    0.0000
  MAY-03-2014 03:45:00     15.500     1.194    0.0407
  MAY-03-2014 04:00:00     43.500     0.676    0.1782
  MAY-03-2014 04:15:00     53.800     0.486    0.4748
  MAY-03-2014 04:30:00     40.300     0.416    0.5674
  MAY-03-2014 04:45:00      6.900     0.390    0.3726
  MAY-03-2014 05:00:00      2.300     0.381    0.1685
  MAY-03-2014 05:15:00      0.000     0.377    0.0931
  MAY-03-2014 05:30:00      0.000     0.376    0.0556
  MAY-03-2014 05:45:00      0.000     0.375    0.0359
  MAY-03-2014 06:00:00      0.000     0.375    0.0243
  MAY-03-2014 06:15:00      0.000     0.375    0.0170
  MAY-03-2014 06:30:00      0.000     0.375    0.0121
  MAY-03-2014 06:45:00      0.000     0.375    0.0087
  MAY-03-2014 07:00:00      0.000     0.375    0.0063
  MAY-03-2014 07:15:00      0.000     0.375    0.0045
  MAY-03-2014 07:30:00      0.000     0.375    0.0032
  MAY-03-2014 07:45:00      0.000     0.375    0.0022
  MAY-03-2014 08:00:00      0.000     0.375    0.0014
  MAY-03-2014 08:15:00      0.000     0.375    0.0009
  MAY-03-2014 08:30:00      0.000     0.375    0.0005
  MAY-03-2014 08:45:00      0.000     0.375    0.0002
  MAY-03-2014 09:00:00      0.000     0.375    0.0000
  MAY-03-2014 09:15:00      0.000     0.000    0.0000
  MAY-03-2014 09:30:00      0.000     0.000    0.0000
  MAY-03-2014 09:45:00      0.000     0.000    0.0000
  MAY-03-2014 10:00:00      0.000     0.000    0.0000
  MAY-03-2014 10:15:00      0.000     0.000    0.0000
  MAY-03-2014 10:30:00      0.000     0.000    0.0000
  MAY-03-2014 10:45:00      0.000     0.000    0.0000
  MAY-03-2014 11:00:00      0.000     0.000    0.0000
  MAY-03-2014 11:15:00      0.000     0.000    0.0000
  MAY-03-2014 11:30:00      0.000     0.000    0.0000
  MAY-03-2014 11:45:00      0.000     0.000    0.0000
  MAY-03-2014 12:00:00      0.000     0.000    0.0000
  MAY-03-2014 12:15:00      0.000     0.000    0.0000
  MAY-03-2014 12:30:00      0.000     0.000    0.0000
  MAY-03-2014 12:45:00      0.000     0.000    0.0000
  MAY-03-2014 13:00:00      0.000     0.000    0.0000
  MAY-03-2014 13:15:00      0.000     0.000    0.0000
  MAY-03-2014 13:30:00      0.000     0.000    0.0000
  MAY-03-2014 13:45:00      0.000     0.000    0.0000
  MAY-03-2014 14:00:00      0.000     0.000    0.0000
  MAY-03-2014 14:15:00      0.000     0.000    0.0000
  MAY-03-2014 14:30:00      0.000     0.000    0.0000
  MAY-03-2014 14:45:00      0.000     0.000    0.0000
  MAY-03-2014 15:00:00      0.000     0.000    0.0000
  MAY-03-2014 15:15:00      0.000     0.000    0.0000
  MAY-03-2014 15:30:00      0.000     0.000    0.0000
  MAY-03-2014 15:45:00      0.000     0.000    0.0000
  MAY-03-2014 16:00:00      0.000     0.000    0.0000
  MAY-03-2014 16:15:00      0.000     0.000    0.0000
  MAY-03-2014 16:30:00      0.000     0.000    0.0000
  MAY-03-2014 16:45:00      0.000     0.000    0.0000
  MAY-03-2014 17:00:00      0.000     0.000    0.0000
  MAY-03-2014 17:15:00      0.000     0.000    0.0000
  MAY-03-2014 17:30:00      0.000     0.000    0.0000
  MAY-03-2014 17:45:00      0.000     0.000    0.0000
  MAY-03-2014 18:00:00      0.000     0.000    0.0000
  
  
  ************
  Node Results
  ************
  
  <<< Node N-5 >>>
  ----------------------------------------------------------------
                           Inflow  Flooding     Depth      Head
  Date        Time            CMS       CMS    meters    meters
  ----------------------------------------------------------------
  MAY-03-2014 00:15:00      2.000     0.000     0.206  2500.206
  MAY-03-2014 00:30:00      2.000     0.000     0.240  2500.240
  MAY-03-2014 00:45:00      2.000     0.000     0.216  2500.216
  MAY-03-2014 01:00:00      2.000     0.000     0.204  2500.204
  MAY-03-2014 01:15:00      2.000     0.000     0.201  2500.201
  MAY-03-2014 01:30:00      2.000     0.000     0.202  2500.202
  MAY-03-2014 01:45:00      2.000     0.000     0.202  2500.202
  MAY-03-2014 02:00:00      2.000     0.000     0.202  2500.202
  MAY-03-2014 02:15:00      2.000     0.000     0.202  2500.202
  MAY-03-2014 02:30:00      2.000     0.000     0.202  2500.202
  MAY-03-2014 02:45:00      2.000     0.000     0.202  2500.202
  MAY-03-2014 03:00:00      2.000     0.000     0.202  2500.202
  MAY-03-2014 03:15:00      2.000     0.000     0.202  2500.202
  MAY-03-2014 03:30:00      2.000     0.000     0.202  2500.202
  MAY-03-2014 03:45:00      2.095     0.000     0.204  2500.204
  MAY-03-2014 04:00:00      2.829     0.000     0.233  2500.233
  MAY-03-2014 04:15:00      5.441     0.000     0.345  2500.345
  MAY-03-2014 04:30:00      8.366     0.000     0.460  2500.460
  MAY-03-2014 04:45:00      9.937     0.000     0.504  2500.504
  MAY-03-2014 05:00:00     11.063     0.000     0.547  2500.547
  MAY-03-2014 05:15:00      9.870     0.000     0.525  2500.525
  MAY-03-2014 05:30:00      7.836     0.000     0.465  2500.465
  MAY-03-2014 05:45:00      6.295     0.000     0.408  2500.408
  MAY-03-2014 06:00:00      5.272     0.000     0.366  2500.366
  MAY-03-2014 06:15:00      4.561     0.000     0.334  2500.334
  MAY-03-2014 06:30:00      4.048     0.000     0.310  2500.310
  MAY-03-2014 06:45:00      3.668     0.000     0.291  2500.291
  MAY-03-2014 07:00:00      3.378     0.000     0.276  2500.276
  MAY-03-2014 07:15:00      3.154     0.000     0.264  2500.264
  MAY-03-2014 07:30:00      2.976     0.000     0.255  2500.255
  MAY-03-2014 07:45:00      2.833     0.000     0.247  2500.247
  MAY-03-2014 08:00:00      2.716     0.000     0.240  2500.240
  MAY-03-2014 08:15:00      2.621     0.000     0.235  2500.235
  MAY-03-2014 08:30:00      2.541     0.000     0.230  2500.230
  MAY-03-2014 08:45:00      2.474     0.000     0.226  2500.226
  MAY-03-2014 09:00:00      2.418     0.000     0.223  2500.223
  MAY-03-2014 09:15:00      2.370     0.000     0.220  2500.220
  MAY-03-2014 09:30:00      2.329     0.000     0.218  2500.218
  MAY-03-2014 09:45:00      2.293     0.000     0.216  2500.216
  MAY-03-2014 10:00:00      2.263     0.000     0.214  2500.214
  MAY-03-2014 10:15:00      2.236     0.000     0.212  2500.212
  MAY-03-2014 10:30:00      2.213     0.000     0.211  2500.211
  MAY-03-2014 10:45:00      2.193     0.000     0.210  2500.210
  MAY-03-2014 11:00:00      2.176     0.000     0.209  2500.209
  MAY-03-2014 11:15:00      2.160     0.000     0.209  2500.209
  MAY-03-2014 11:30:00      2.146     0.000     0.209  2500.209
  MAY-03-2014 11:45:00      2.134     0.000     0.208  2500.208
  MAY-03-2014 12:00:00      2.123     0.000     0.208  2500.208
  MAY-03-2014 12:15:00      2.113     0.000     0.208  2500.208
  MAY-03-2014 12:30:00      2.104     0.000     0.207  2500.207
  MAY-03-2014 12:45:00      2.096     0.000     0.207  2500.207
  MAY-03-2014 13:00:00      2.089     0.000     0.207  2500.207
  MAY-03-2014 13:15:00      2.083     0.000     0.206  2500.207
  MAY-03-2014 13:30:00      2.078     0.000     0.206  2500.206
  MAY-03-2014 13:45:00      2.073     0.000     0.206  2500.206
  MAY-03-2014 14:00:00      2.069     0.000     0.206  2500.206
  MAY-03-2014 14:15:00      2.065     0.000     0.206  2500.206
  MAY-03-2014 14:30:00      2.061     0.000     0.206  2500.206
  MAY-03-2014 14:45:00      2.058     0.000     0.206  2500.206
  MAY-03-2014 15:00:00      2.055     0.000     0.205  2500.205
  MAY-03-2014 15:15:00      2.052     0.000     0.205  2500.205
  MAY-03-2014 15:30:00      2.049     0.000     0.205  2500.205
  MAY-03-2014 15:45:00      2.047     0.000     0.205  2500.205
  MAY-03-2014 16:00:00      2.044     0.000     0.205  2500.205
  MAY-03-2014 16:15:00      2.042     0.000     0.205  2500.205
  MAY-03-2014 16:30:00      2.040     0.000     0.205  2500.205
  MAY-03-2014 16:45:00      2.038     0.000     0.204  2500.205
  MAY-03-2014 17:00:00      2.037     0.000     0.204  2500.204
  MAY-03-2014 17:15:00      2.035     0.000     0.204  2500.204
  MAY-03-2014 17:30:00      2.033     0.000     0.204  2500.204
  MAY-03-2014 17:45:00      2.032     0.000     0.204  2500.204
  MAY-03-2014 18:00:00      2.031     0.000     0.204  2500.204
  
  
  <<< Node N-6 >>>
  ----------------------------------------------------------------
                           Inflow  Flooding     Depth      Head
  Date        Time            CMS       CMS    meters    meters
  ----------------------------------------------------------------
  MAY-03-2014 00:15:00      0.973     0.000     0.032  2499.022
  MAY-03-2014 00:30:00      2.156     0.000     0.157  2499.146
  MAY-03-2014 00:45:00      2.167     0.000     0.195  2499.185
  MAY-03-2014 01:00:00      2.050     0.000     0.197  2499.187
  MAY-03-2014 01:15:00      2.002     0.000     0.193  2499.184
  MAY-03-2014 01:30:00      1.995     0.000     0.192  2499.182
  MAY-03-2014 01:45:00      1.998     0.000     0.192  2499.182
  MAY-03-2014 02:00:00      2.000     0.000     0.192  2499.182
  MAY-03-2014 02:15:00      2.000     0.000     0.192  2499.182
  MAY-03-2014 02:30:00      2.000     0.000     0.192  2499.182
  MAY-03-2014 02:45:00      2.000     0.000     0.192  2499.182
  MAY-03-2014 03:00:00      2.000     0.000     0.192  2499.182
  MAY-03-2014 03:15:00      2.000     0.000     0.192  2499.182
  MAY-03-2014 03:30:00      2.000     0.000     0.192  2499.182
  MAY-03-2014 03:45:00      2.020     0.000     0.192  2499.182
  MAY-03-2014 04:00:00      2.358     0.000     0.200  2499.190
  MAY-03-2014 04:15:00      4.204     0.000     0.252  2499.242
  MAY-03-2014 04:30:00      8.391     0.000     0.448  2499.438
  MAY-03-2014 04:45:00     10.979     0.000     0.732  2499.722
  MAY-03-2014 05:00:00     13.349     0.000     1.013  2500.003
  MAY-03-2014 05:15:00     12.062     0.000     1.184  2500.174
  MAY-03-2014 05:30:00      9.513     0.000     1.191  2500.181
  MAY-03-2014 05:45:00      7.508     0.000     1.096  2500.086
  MAY-03-2014 06:00:00      6.190     0.000     0.965  2499.955
  MAY-03-2014 06:15:00      5.293     0.000     0.835  2499.825
  MAY-03-2014 06:30:00      4.652     0.000     0.720  2499.710
  MAY-03-2014 06:45:00      4.178     0.000     0.624  2499.614
  MAY-03-2014 07:00:00      3.817     0.000     0.545  2499.535
  MAY-03-2014 07:15:00      3.535     0.000     0.482  2499.472
  MAY-03-2014 07:30:00      3.311     0.000     0.431  2499.421
  MAY-03-2014 07:45:00      3.130     0.000     0.390  2499.380
  MAY-03-2014 08:00:00      2.981     0.000     0.357  2499.347
  MAY-03-2014 08:15:00      2.856     0.000     0.330  2499.320
  MAY-03-2014 08:30:00      2.752     0.000     0.307  2499.297
  MAY-03-2014 08:45:00      2.663     0.000     0.289  2499.279
  MAY-03-2014 09:00:00      2.587     0.000     0.273  2499.263
  MAY-03-2014 09:15:00      2.522     0.000     0.260  2499.250
  MAY-03-2014 09:30:00      2.465     0.000     0.249  2499.239
  MAY-03-2014 09:45:00      2.416     0.000     0.240  2499.229
  MAY-03-2014 10:00:00      2.372     0.000     0.231  2499.221
  MAY-03-2014 10:15:00      2.334     0.000     0.224  2499.214
  MAY-03-2014 10:30:00      2.301     0.000     0.218  2499.208
  MAY-03-2014 10:45:00      2.271     0.000     0.213  2499.203
  MAY-03-2014 11:00:00      2.241     0.000     0.208  2499.198
  MAY-03-2014 11:15:00      2.211     0.000     0.205  2499.195
  MAY-03-2014 11:30:00      2.194     0.000     0.204  2499.194
  MAY-03-2014 11:45:00      2.177     0.000     0.202  2499.192
  MAY-03-2014 12:00:00      2.161     0.000     0.202  2499.192
  MAY-03-2014 12:15:00      2.145     0.000     0.201  2499.191
  MAY-03-2014 12:30:00      2.131     0.000     0.200  2499.190
  MAY-03-2014 12:45:00      2.119     0.000     0.199  2499.189
  MAY-03-2014 13:00:00      2.108     0.000     0.198  2499.188
  MAY-03-2014 13:15:00      2.098     0.000     0.198  2499.188
  MAY-03-2014 13:30:00      2.090     0.000     0.197  2499.187
  MAY-03-2014 13:45:00      2.082     0.000     0.197  2499.187
  MAY-03-2014 14:00:00      2.075     0.000     0.196  2499.187
  MAY-03-2014 14:15:00      2.070     0.000     0.196  2499.186
  MAY-03-2014 14:30:00      2.065     0.000     0.196  2499.186
  MAY-03-2014 14:45:00      2.060     0.000     0.195  2499.186
  MAY-03-2014 15:00:00      2.057     0.000     0.195  2499.185
  MAY-03-2014 15:15:00      2.054     0.000     0.195  2499.185
  MAY-03-2014 15:30:00      2.051     0.000     0.195  2499.185
  MAY-03-2014 15:45:00      2.049     0.000     0.195  2499.185
  MAY-03-2014 16:00:00      2.046     0.000     0.195  2499.185
  MAY-03-2014 16:15:00      2.044     0.000     0.194  2499.185
  MAY-03-2014 16:30:00      2.042     0.000     0.194  2499.184
  MAY-03-2014 16:45:00      2.040     0.000     0.194  2499.184
  MAY-03-2014 17:00:00      2.038     0.000     0.194  2499.184
  MAY-03-2014 17:15:00      2.036     0.000     0.194  2499.184
  MAY-03-2014 17:30:00      2.035     0.000     0.194  2499.184
  MAY-03-2014 17:45:00      2.033     0.000     0.194  2499.184
  MAY-03-2014 18:00:00      2.032     0.000     0.194  2499.184
  
  
  <<< Node N-7 >>>
  ----------------------------------------------------------------
                           Inflow  Flooding     Depth      Head
  Date        Time            CMS       CMS    meters    meters
  ----------------------------------------------------------------
  MAY-03-2014 00:15:00      0.035     0.000     0.002  2498.642
  MAY-03-2014 00:30:00      1.115     0.000     0.108  2498.748
  MAY-03-2014 00:45:00      2.044     0.000     0.415  2499.055
  MAY-03-2014 01:00:00      2.082     0.000     0.491  2499.131
  MAY-03-2014 01:15:00      2.029     0.000     0.485  2499.125
  MAY-03-2014 01:30:00      2.002     0.000     0.480  2499.120
  MAY-03-2014 01:45:00      1.998     0.000     0.477  2499.117
  MAY-03-2014 02:00:00      1.999     0.000     0.477  2499.117
  MAY-03-2014 02:15:00      2.000     0.000     0.477  2499.117
  MAY-03-2014 02:30:00      2.000     0.000     0.477  2499.117
  MAY-03-2014 02:45:00      2.000     0.000     0.477  2499.117
  MAY-03-2014 03:00:00      2.000     0.000     0.477  2499.117
  MAY-03-2014 03:15:00      2.000     0.000     0.477  2499.117
  MAY-03-2014 03:30:00      2.000     0.000     0.477  2499.117
  MAY-03-2014 03:45:00      2.004     0.000     0.477  2499.117
  MAY-03-2014 04:00:00      2.138     0.000     0.485  2499.125
  MAY-03-2014 04:15:00      3.046     0.000     0.559  2499.199
  MAY-03-2014 04:30:00      5.100     0.000     0.772  2499.412
  MAY-03-2014 04:45:00      7.496     0.000     1.069  2499.709
  MAY-03-2014 05:00:00     10.000     0.000     1.357  2499.997
  MAY-03-2014 05:15:00     10.946     0.000     1.530  2500.170
  MAY-03-2014 05:30:00     10.318     0.000     1.537  2500.177
  MAY-03-2014 05:45:00      9.146     0.000     1.441  2500.081
  MAY-03-2014 06:00:00      7.940     0.000     1.309  2499.949
  MAY-03-2014 06:15:00      6.869     0.000     1.178  2499.818
  MAY-03-2014 06:30:00      5.965     0.000     1.062  2499.702
  MAY-03-2014 06:45:00      5.237     0.000     0.964  2499.604
  MAY-03-2014 07:00:00      4.660     0.000     0.884  2499.524
  MAY-03-2014 07:15:00      4.204     0.000     0.819  2499.458
  MAY-03-2014 07:30:00      3.844     0.000     0.766  2499.406
  MAY-03-2014 07:45:00      3.557     0.000     0.723  2499.363
  MAY-03-2014 08:00:00      3.325     0.000     0.688  2499.328
  MAY-03-2014 08:15:00      3.137     0.000     0.659  2499.299
  MAY-03-2014 08:30:00      2.983     0.000     0.635  2499.275
  MAY-03-2014 08:45:00      2.855     0.000     0.615  2499.255
  MAY-03-2014 09:00:00      2.748     0.000     0.598  2499.238
  MAY-03-2014 09:15:00      2.657     0.000     0.584  2499.224
  MAY-03-2014 09:30:00      2.580     0.000     0.572  2499.211
  MAY-03-2014 09:45:00      2.514     0.000     0.561  2499.201
  MAY-03-2014 10:00:00      2.457     0.000     0.552  2499.192
  MAY-03-2014 10:15:00      2.408     0.000     0.544  2499.184
  MAY-03-2014 10:30:00      2.364     0.000     0.537  2499.177
  MAY-03-2014 10:45:00      2.327     0.000     0.531  2499.171
  MAY-03-2014 11:00:00      2.290     0.000     0.525  2499.165
  MAY-03-2014 11:15:00      2.233     0.000     0.517  2499.157
  MAY-03-2014 11:30:00      2.207     0.000     0.512  2499.152
  MAY-03-2014 11:45:00      2.188     0.000     0.508  2499.148
  MAY-03-2014 12:00:00      2.171     0.000     0.505  2499.145
  MAY-03-2014 12:15:00      2.155     0.000     0.503  2499.143
  MAY-03-2014 12:30:00      2.140     0.000     0.500  2499.140
  MAY-03-2014 12:45:00      2.127     0.000     0.498  2499.138
  MAY-03-2014 13:00:00      2.115     0.000     0.496  2499.136
  MAY-03-2014 13:15:00      2.104     0.000     0.494  2499.134
  MAY-03-2014 13:30:00      2.095     0.000     0.493  2499.133
  MAY-03-2014 13:45:00      2.087     0.000     0.491  2499.131
  MAY-03-2014 14:00:00      2.080     0.000     0.490  2499.130
  MAY-03-2014 14:15:00      2.073     0.000     0.489  2499.129
  MAY-03-2014 14:30:00      2.068     0.000     0.488  2499.128
  MAY-03-2014 14:45:00      2.063     0.000     0.487  2499.127
  MAY-03-2014 15:00:00      2.059     0.000     0.487  2499.127
  MAY-03-2014 15:15:00      2.056     0.000     0.486  2499.126
  MAY-03-2014 15:30:00      2.053     0.000     0.486  2499.125
  MAY-03-2014 15:45:00      2.050     0.000     0.485  2499.125
  MAY-03-2014 16:00:00      2.048     0.000     0.485  2499.125
  MAY-03-2014 16:15:00      2.045     0.000     0.484  2499.124
  MAY-03-2014 16:30:00      2.043     0.000     0.484  2499.124
  MAY-03-2014 16:45:00      2.041     0.000     0.484  2499.124
  MAY-03-2014 17:00:00      2.039     0.000     0.483  2499.123
  MAY-03-2014 17:15:00      2.037     0.000     0.483  2499.123
  MAY-03-2014 17:30:00      2.036     0.000     0.483  2499.123
  MAY-03-2014 17:45:00      2.034     0.000     0.482  2499.123
  MAY-03-2014 18:00:00      2.033     0.000     0.482  2499.122
  
  
  <<< Node N-9 >>>
  ----------------------------------------------------------------
                           Inflow  Flooding     Depth      Head
  Date        Time            CMS       CMS    meters    meters
  ----------------------------------------------------------------
  MAY-03-2014 00:15:00      0.000     0.000     0.000  2498.000
  MAY-03-2014 00:30:00      0.073     0.000     0.009  2498.009
  MAY-03-2014 00:45:00      1.399     0.000     0.270  2498.270
  MAY-03-2014 01:00:00      2.060     0.000     0.474  2498.474
  MAY-03-2014 01:15:00      2.055     0.000     0.534  2498.534
  MAY-03-2014 01:30:00      2.017     0.000     0.542  2498.542
  MAY-03-2014 01:45:00      2.002     0.000     0.541  2498.541
  MAY-03-2014 02:00:00      1.999     0.000     0.540  2498.540
  MAY-03-2014 02:15:00      1.999     0.000     0.540  2498.540
  MAY-03-2014 02:30:00      2.000     0.000     0.540  2498.540
  MAY-03-2014 02:45:00      2.000     0.000     0.540  2498.540
  MAY-03-2014 03:00:00      2.000     0.000     0.540  2498.540
  MAY-03-2014 03:15:00      2.000     0.000     0.540  2498.540
  MAY-03-2014 03:30:00      2.000     0.000     0.540  2498.540
  MAY-03-2014 03:45:00      2.001     0.000     0.540  2498.541
  MAY-03-2014 04:00:00      2.052     0.000     0.544  2498.544
  MAY-03-2014 04:15:00      2.519     0.000     0.585  2498.585
  MAY-03-2014 04:30:00      3.931     0.000     0.730  2498.730
  MAY-03-2014 04:45:00      6.333     0.000     0.995  2498.995
  MAY-03-2014 05:00:00      8.909     0.000     1.272  2499.272
  MAY-03-2014 05:15:00     10.556     0.000     1.490  2499.490
  MAY-03-2014 05:30:00     10.561     0.000     1.558  2499.558
  MAY-03-2014 05:45:00      9.667     0.000     1.487  2499.487
  MAY-03-2014 06:00:00      8.510     0.000     1.363  2499.363
  MAY-03-2014 06:15:00      7.391     0.000     1.225  2499.225
  MAY-03-2014 06:30:00      6.400     0.000     1.124  2499.124
  MAY-03-2014 06:45:00      5.590     0.000     1.047  2499.047
  MAY-03-2014 07:00:00      4.943     0.000     0.976  2498.976
  MAY-03-2014 07:15:00      4.432     0.000     0.918  2498.918
  MAY-03-2014 07:30:00      4.026     0.000     0.863  2498.863
  MAY-03-2014 07:45:00      3.704     0.000     0.809  2498.810
  MAY-03-2014 08:00:00      3.445     0.000     0.762  2498.762
  MAY-03-2014 08:15:00      3.236     0.000     0.720  2498.720
  MAY-03-2014 08:30:00      3.064     0.000     0.693  2498.693
  MAY-03-2014 08:45:00      2.923     0.000     0.672  2498.672
  MAY-03-2014 09:00:00      2.805     0.000     0.655  2498.656
  MAY-03-2014 09:15:00      2.706     0.000     0.641  2498.641
  MAY-03-2014 09:30:00      2.622     0.000     0.629  2498.629
  MAY-03-2014 09:45:00      2.550     0.000     0.621  2498.621
  MAY-03-2014 10:00:00      2.489     0.000     0.613  2498.613
  MAY-03-2014 10:15:00      2.435     0.000     0.605  2498.605
  MAY-03-2014 10:30:00      2.388     0.000     0.598  2498.598
  MAY-03-2014 10:45:00      2.348     0.000     0.592  2498.592
  MAY-03-2014 11:00:00      2.312     0.000     0.588  2498.588
  MAY-03-2014 11:15:00      2.260     0.000     0.583  2498.583
  MAY-03-2014 11:30:00      2.222     0.000     0.576  2498.576
  MAY-03-2014 11:45:00      2.199     0.000     0.572  2498.572
  MAY-03-2014 12:00:00      2.181     0.000     0.569  2498.569
  MAY-03-2014 12:15:00      2.164     0.000     0.566  2498.566
  MAY-03-2014 12:30:00      2.148     0.000     0.564  2498.564
  MAY-03-2014 12:45:00      2.134     0.000     0.562  2498.562
  MAY-03-2014 13:00:00      2.121     0.000     0.560  2498.560
  MAY-03-2014 13:15:00      2.110     0.000     0.558  2498.558
  MAY-03-2014 13:30:00      2.100     0.000     0.556  2498.556
  MAY-03-2014 13:45:00      2.091     0.000     0.555  2498.555
  MAY-03-2014 14:00:00      2.084     0.000     0.554  2498.554
  MAY-03-2014 14:15:00      2.077     0.000     0.553  2498.553
  MAY-03-2014 14:30:00      2.071     0.000     0.552  2498.552
  MAY-03-2014 14:45:00      2.066     0.000     0.551  2498.551
  MAY-03-2014 15:00:00      2.061     0.000     0.550  2498.550
  MAY-03-2014 15:15:00      2.058     0.000     0.550  2498.550
  MAY-03-2014 15:30:00      2.055     0.000     0.549  2498.549
  MAY-03-2014 15:45:00      2.052     0.000     0.549  2498.549
  MAY-03-2014 16:00:00      2.049     0.000     0.548  2498.548
  MAY-03-2014 16:15:00      2.047     0.000     0.548  2498.548
  MAY-03-2014 16:30:00      2.045     0.000     0.547  2498.547
  MAY-03-2014 16:45:00      2.042     0.000     0.547  2498.547
  MAY-03-2014 17:00:00      2.040     0.000     0.547  2498.547
  MAY-03-2014 17:15:00      2.038     0.000     0.546  2498.546
  MAY-03-2014 17:30:00      2.037     0.000     0.546  2498.546
  MAY-03-2014 17:45:00      2.035     0.000     0.546  2498.546
  MAY-03-2014 18:00:00      2.033     0.000     0.546  2498.546
  
  
  <<< Node N-13 >>>
  ----------------------------------------------------------------
                           Inflow  Flooding     Depth      Head
  Date        Time            CMS       CMS    meters    meters
  ----------------------------------------------------------------
  MAY-03-2014 00:15:00      0.000     0.000     0.000  2498.000
  MAY-03-2014 00:30:00      0.002     0.000     0.002  2498.001
  MAY-03-2014 00:45:00      0.360     0.000     0.138  2498.138
  MAY-03-2014 01:00:00      0.665     0.000     0.362  2498.362
  MAY-03-2014 01:15:00      0.672     0.000     0.456  2498.456
  MAY-03-2014 01:30:00      0.655     0.000     0.472  2498.472
  MAY-03-2014 01:45:00      0.649     0.000     0.473  2498.473
  MAY-03-2014 02:00:00      0.648     0.000     0.472  2498.472
  MAY-03-2014 02:15:00      0.648     0.000     0.472  2498.472
  MAY-03-2014 02:30:00      0.648     0.000     0.472  2498.472
  MAY-03-2014 02:45:00      0.648     0.000     0.472  2498.472
  MAY-03-2014 03:00:00      0.648     0.000     0.472  2498.472
  MAY-03-2014 03:15:00      0.648     0.000     0.472  2498.472
  MAY-03-2014 03:30:00      0.648     0.000     0.472  2498.472
  MAY-03-2014 03:45:00      0.648     0.000     0.472  2498.472
  MAY-03-2014 04:00:00      0.661     0.000     0.473  2498.473
  MAY-03-2014 04:15:00      0.789     0.000     0.492  2498.492
  MAY-03-2014 04:30:00      1.214     0.000     0.578  2498.578
  MAY-03-2014 04:45:00      2.000     0.000     0.766  2498.766
  MAY-03-2014 05:00:00      2.838     0.000     0.996  2498.996
  MAY-03-2014 05:15:00      3.387     0.000     1.219  2499.219
  MAY-03-2014 05:30:00      3.386     0.000     1.324  2499.324
  MAY-03-2014 05:45:00      3.174     0.000     1.261  2499.261
  MAY-03-2014 06:00:00      2.822     0.000     1.147  2499.147
  MAY-03-2014 06:15:00      2.466     0.000     1.019  2499.019
  MAY-03-2014 06:30:00      2.186     0.000     0.929  2498.929
  MAY-03-2014 06:45:00      1.959     0.000     0.868  2498.868
  MAY-03-2014 07:00:00      1.757     0.000     0.809  2498.809
  MAY-03-2014 07:15:00      1.599     0.000     0.764  2498.764
  MAY-03-2014 07:30:00      1.445     0.000     0.721  2498.721
  MAY-03-2014 07:45:00      1.301     0.000     0.679  2498.679
  MAY-03-2014 08:00:00      1.178     0.000     0.642  2498.642
  MAY-03-2014 08:15:00      1.074     0.000     0.610  2498.610
  MAY-03-2014 08:30:00      1.011     0.000     0.586  2498.586
  MAY-03-2014 08:45:00      0.963     0.000     0.570  2498.570
  MAY-03-2014 09:00:00      0.923     0.000     0.557  2498.557
  MAY-03-2014 09:15:00      0.890     0.000     0.546  2498.546
  MAY-03-2014 09:30:00      0.862     0.000     0.536  2498.536
  MAY-03-2014 09:45:00      0.846     0.000     0.529  2498.529
  MAY-03-2014 10:00:00      0.826     0.000     0.523  2498.523
  MAY-03-2014 10:15:00      0.808     0.000     0.517  2498.517
  MAY-03-2014 10:30:00      0.793     0.000     0.511  2498.511
  MAY-03-2014 10:45:00      0.779     0.000     0.507  2498.507
  MAY-03-2014 11:00:00      0.752     0.000     0.510  2498.510
  MAY-03-2014 11:15:00      0.735     0.000     0.507  2498.507
  MAY-03-2014 11:30:00      0.721     0.000     0.502  2498.501
  MAY-03-2014 11:45:00      0.714     0.000     0.498  2498.498
  MAY-03-2014 12:00:00      0.708     0.000     0.495  2498.495
  MAY-03-2014 12:15:00      0.702     0.000     0.493  2498.493
  MAY-03-2014 12:30:00      0.697     0.000     0.491  2498.491
  MAY-03-2014 12:45:00      0.692     0.000     0.489  2498.489
  MAY-03-2014 13:00:00      0.688     0.000     0.488  2498.488
  MAY-03-2014 13:15:00      0.684     0.000     0.486  2498.486
  MAY-03-2014 13:30:00      0.681     0.000     0.485  2498.485
  MAY-03-2014 13:45:00      0.678     0.000     0.484  2498.484
  MAY-03-2014 14:00:00      0.676     0.000     0.483  2498.483
  MAY-03-2014 14:15:00      0.674     0.000     0.482  2498.482
  MAY-03-2014 14:30:00      0.672     0.000     0.481  2498.481
  MAY-03-2014 14:45:00      0.670     0.000     0.480  2498.480
  MAY-03-2014 15:00:00      0.668     0.000     0.480  2498.480
  MAY-03-2014 15:15:00      0.667     0.000     0.479  2498.479
  MAY-03-2014 15:30:00      0.666     0.000     0.479  2498.479
  MAY-03-2014 15:45:00      0.665     0.000     0.479  2498.479
  MAY-03-2014 16:00:00      0.664     0.000     0.478  2498.478
  MAY-03-2014 16:15:00      0.664     0.000     0.478  2498.478
  MAY-03-2014 16:30:00      0.663     0.000     0.478  2498.478
  MAY-03-2014 16:45:00      0.662     0.000     0.477  2498.477
  MAY-03-2014 17:00:00      0.661     0.000     0.477  2498.477
  MAY-03-2014 17:15:00      0.661     0.000     0.477  2498.477
  MAY-03-2014 17:30:00      0.660     0.000     0.477  2498.477
  MAY-03-2014 17:45:00      0.660     0.000     0.476  2498.476
  MAY-03-2014 18:00:00      0.659     0.000     0.476  2498.476
  
  
  <<< Node N-14 >>>
  ----------------------------------------------------------------
                           Inflow  Flooding     Depth      Head
  Date        Time            CMS       CMS    meters    meters
  ----------------------------------------------------------------
  MAY-03-2014 00:15:00      0.000     0.000     0.000  2498.000
  MAY-03-2014 00:30:00      0.002     0.000     0.002  2498.002
  MAY-03-2014 00:45:00      0.352     0.000     0.147  2498.147
  MAY-03-2014 01:00:00      0.675     0.000     0.357  2498.357
  MAY-03-2014 01:15:00      0.744     0.000     0.430  2498.430
  MAY-03-2014 01:30:00      0.748     0.000     0.442  2498.442
  MAY-03-2014 01:45:00      0.744     0.000     0.442  2498.442
  MAY-03-2014 02:00:00      0.743     0.000     0.441  2498.441
  MAY-03-2014 02:15:00      0.743     0.000     0.441  2498.441
  MAY-03-2014 02:30:00      0.743     0.000     0.441  2498.441
  MAY-03-2014 02:45:00      0.743     0.000     0.441  2498.441
  MAY-03-2014 03:00:00      0.743     0.000     0.441  2498.441
  MAY-03-2014 03:15:00      0.743     0.000     0.441  2498.441
  MAY-03-2014 03:30:00      0.743     0.000     0.441  2498.441
  MAY-03-2014 03:45:00      0.743     0.000     0.441  2498.441
  MAY-03-2014 04:00:00      0.755     0.000     0.443  2498.443
  MAY-03-2014 04:15:00      0.877     0.000     0.462  2498.462
  MAY-03-2014 04:30:00      1.303     0.000     0.544  2498.544
  MAY-03-2014 04:45:00      2.130     0.000     0.722  2498.722
  MAY-03-2014 05:00:00      3.066     0.000     0.929  2498.929
  MAY-03-2014 05:15:00      3.770     0.000     1.125  2499.125
  MAY-03-2014 05:30:00      3.899     0.000     1.213  2499.213
  MAY-03-2014 05:45:00      3.601     0.000     1.167  2499.167
  MAY-03-2014 06:00:00      3.184     0.000     1.064  2499.064
  MAY-03-2014 06:15:00      2.734     0.000     0.951  2498.951
  MAY-03-2014 06:30:00      2.415     0.000     0.868  2498.868
  MAY-03-2014 06:45:00      2.161     0.000     0.812  2498.812
  MAY-03-2014 07:00:00      1.937     0.000     0.758  2498.758
  MAY-03-2014 07:15:00      1.763     0.000     0.716  2498.716
  MAY-03-2014 07:30:00      1.594     0.000     0.677  2498.677
  MAY-03-2014 07:45:00      1.435     0.000     0.639  2498.639
  MAY-03-2014 08:00:00      1.301     0.000     0.605  2498.604
  MAY-03-2014 08:15:00      1.187     0.000     0.575  2498.575
  MAY-03-2014 08:30:00      1.118     0.000     0.553  2498.553
  MAY-03-2014 08:45:00      1.066     0.000     0.538  2498.538
  MAY-03-2014 09:00:00      1.022     0.000     0.525  2498.525
  MAY-03-2014 09:15:00      0.986     0.000     0.515  2498.515
  MAY-03-2014 09:30:00      0.955     0.000     0.506  2498.506
  MAY-03-2014 09:45:00      0.936     0.000     0.499  2498.499
  MAY-03-2014 10:00:00      0.916     0.000     0.494  2498.494
  MAY-03-2014 10:15:00      0.896     0.000     0.488  2498.489
  MAY-03-2014 10:30:00      0.879     0.000     0.483  2498.483
  MAY-03-2014 10:45:00      0.864     0.000     0.479  2498.479
  MAY-03-2014 11:00:00      0.857     0.000     0.476  2498.476
  MAY-03-2014 11:15:00      0.841     0.000     0.473  2498.473
  MAY-03-2014 11:30:00      0.827     0.000     0.468  2498.468
  MAY-03-2014 11:45:00      0.817     0.000     0.465  2498.465
  MAY-03-2014 12:00:00      0.810     0.000     0.462  2498.462
  MAY-03-2014 12:15:00      0.804     0.000     0.460  2498.460
  MAY-03-2014 12:30:00      0.798     0.000     0.459  2498.459
  MAY-03-2014 12:45:00      0.793     0.000     0.457  2498.457
  MAY-03-2014 13:00:00      0.788     0.000     0.456  2498.456
  MAY-03-2014 13:15:00      0.784     0.000     0.454  2498.454
  MAY-03-2014 13:30:00      0.780     0.000     0.453  2498.453
  MAY-03-2014 13:45:00      0.777     0.000     0.452  2498.452
  MAY-03-2014 14:00:00      0.774     0.000     0.451  2498.451
  MAY-03-2014 14:15:00      0.772     0.000     0.450  2498.450
  MAY-03-2014 14:30:00      0.769     0.000     0.450  2498.449
  MAY-03-2014 14:45:00      0.767     0.000     0.449  2498.449
  MAY-03-2014 15:00:00      0.766     0.000     0.448  2498.448
  MAY-03-2014 15:15:00      0.764     0.000     0.448  2498.448
  MAY-03-2014 15:30:00      0.763     0.000     0.448  2498.448
  MAY-03-2014 15:45:00      0.762     0.000     0.447  2498.447
  MAY-03-2014 16:00:00      0.761     0.000     0.447  2498.447
  MAY-03-2014 16:15:00      0.760     0.000     0.447  2498.447
  MAY-03-2014 16:30:00      0.759     0.000     0.446  2498.446
  MAY-03-2014 16:45:00      0.759     0.000     0.446  2498.446
  MAY-03-2014 17:00:00      0.758     0.000     0.446  2498.446
  MAY-03-2014 17:15:00      0.757     0.000     0.446  2498.446
  MAY-03-2014 17:30:00      0.756     0.000     0.446  2498.446
  MAY-03-2014 17:45:00      0.756     0.000     0.445  2498.445
  MAY-03-2014 18:00:00      0.755     0.000     0.445  2498.445
  
  
  <<< Node N-15 >>>
  ----------------------------------------------------------------
                           Inflow  Flooding     Depth      Head
  Date        Time            CMS       CMS    meters    meters
  ----------------------------------------------------------------
  MAY-03-2014 00:15:00      0.000     0.000     0.000  2498.000
  MAY-03-2014 00:30:00      0.002     0.000     0.002  2498.002
  MAY-03-2014 00:45:00      0.323     0.000     0.176  2498.176
  MAY-03-2014 01:00:00      0.564     0.000     0.403  2498.403
  MAY-03-2014 01:15:00      0.611     0.000     0.473  2498.473
  MAY-03-2014 01:30:00      0.613     0.000     0.484  2498.483
  MAY-03-2014 01:45:00      0.610     0.000     0.483  2498.483
  MAY-03-2014 02:00:00      0.609     0.000     0.483  2498.483
  MAY-03-2014 02:15:00      0.609     0.000     0.483  2498.482
  MAY-03-2014 02:30:00      0.609     0.000     0.483  2498.483
  MAY-03-2014 02:45:00      0.609     0.000     0.483  2498.483
  MAY-03-2014 03:00:00      0.609     0.000     0.483  2498.483
  MAY-03-2014 03:15:00      0.609     0.000     0.483  2498.483
  MAY-03-2014 03:30:00      0.609     0.000     0.483  2498.483
  MAY-03-2014 03:45:00      0.609     0.000     0.483  2498.483
  MAY-03-2014 04:00:00      0.621     0.000     0.484  2498.484
  MAY-03-2014 04:15:00      0.737     0.000     0.508  2498.508
  MAY-03-2014 04:30:00      1.124     0.000     0.607  2498.607
  MAY-03-2014 04:45:00      1.849     0.000     0.811  2498.811
  MAY-03-2014 05:00:00      2.651     0.000     1.043  2499.043
  MAY-03-2014 05:15:00      3.205     0.000     1.256  2499.256
  MAY-03-2014 05:30:00      3.283     0.000     1.343  2499.343
  MAY-03-2014 05:45:00      3.034     0.000     1.287  2499.287
  MAY-03-2014 06:00:00      2.686     0.000     1.175  2499.175
  MAY-03-2014 06:15:00      2.348     0.000     1.045  2499.045
  MAY-03-2014 06:30:00      1.883     0.000     0.995  2498.995
  MAY-03-2014 06:45:00      1.571     0.000     0.948  2498.948
  MAY-03-2014 07:00:00      1.329     0.000     0.897  2498.897
  MAY-03-2014 07:15:00      1.139     0.000     0.856  2498.856
  MAY-03-2014 07:30:00      1.058     0.000     0.801  2498.801
  MAY-03-2014 07:45:00      1.033     0.000     0.739  2498.739
  MAY-03-2014 08:00:00      1.023     0.000     0.680  2498.680
  MAY-03-2014 08:15:00      1.022     0.000     0.623  2498.623
  MAY-03-2014 08:30:00      0.964     0.000     0.599  2498.599
  MAY-03-2014 08:45:00      0.918     0.000     0.583  2498.583
  MAY-03-2014 09:00:00      0.880     0.000     0.569  2498.569
  MAY-03-2014 09:15:00      0.848     0.000     0.557  2498.557
  MAY-03-2014 09:30:00      0.820     0.000     0.547  2498.547
  MAY-03-2014 09:45:00      0.777     0.000     0.548  2498.548
  MAY-03-2014 10:00:00      0.757     0.000     0.542  2498.542
  MAY-03-2014 10:15:00      0.740     0.000     0.535  2498.535
  MAY-03-2014 10:30:00      0.726     0.000     0.530  2498.530
  MAY-03-2014 10:45:00      0.713     0.000     0.525  2498.525
  MAY-03-2014 11:00:00      0.707     0.000     0.522  2498.521
  MAY-03-2014 11:15:00      0.693     0.000     0.518  2498.518
  MAY-03-2014 11:30:00      0.681     0.000     0.512  2498.512
  MAY-03-2014 11:45:00      0.673     0.000     0.509  2498.509
  MAY-03-2014 12:00:00      0.667     0.000     0.506  2498.506
  MAY-03-2014 12:15:00      0.661     0.000     0.504  2498.504
  MAY-03-2014 12:30:00      0.656     0.000     0.502  2498.502
  MAY-03-2014 12:45:00      0.652     0.000     0.500  2498.500
  MAY-03-2014 13:00:00      0.648     0.000     0.498  2498.499
  MAY-03-2014 13:15:00      0.644     0.000     0.497  2498.497
  MAY-03-2014 13:30:00      0.641     0.000     0.496  2498.496
  MAY-03-2014 13:45:00      0.638     0.000     0.495  2498.495
  MAY-03-2014 14:00:00      0.635     0.000     0.494  2498.494
  MAY-03-2014 14:15:00      0.633     0.000     0.493  2498.493
  MAY-03-2014 14:30:00      0.631     0.000     0.492  2498.492
  MAY-03-2014 14:45:00      0.630     0.000     0.491  2498.491
  MAY-03-2014 15:00:00      0.628     0.000     0.491  2498.490
  MAY-03-2014 15:15:00      0.627     0.000     0.490  2498.490
  MAY-03-2014 15:30:00      0.626     0.000     0.490  2498.490
  MAY-03-2014 15:45:00      0.625     0.000     0.489  2498.489
  MAY-03-2014 16:00:00      0.624     0.000     0.489  2498.489
  MAY-03-2014 16:15:00      0.624     0.000     0.489  2498.489
  MAY-03-2014 16:30:00      0.623     0.000     0.488  2498.488
  MAY-03-2014 16:45:00      0.622     0.000     0.488  2498.488
  MAY-03-2014 17:00:00      0.621     0.000     0.488  2498.488
  MAY-03-2014 17:15:00      0.621     0.000     0.488  2498.488
  MAY-03-2014 17:30:00      0.620     0.000     0.487  2498.487
  MAY-03-2014 17:45:00      0.620     0.000     0.487  2498.487
  MAY-03-2014 18:00:00      0.619     0.000     0.487  2498.487
  
  
  <<< Node DES-1 >>>
  ----------------------------------------------------------------
                           Inflow  Flooding     Depth      Head
  Date        Time            CMS       CMS    meters    meters
  ----------------------------------------------------------------
  MAY-03-2014 00:15:00      0.000     0.000     0.000  2492.000
  MAY-03-2014 00:30:00      0.000     0.000     0.000  2492.000
  MAY-03-2014 00:45:00      0.000     0.000     0.000  2492.000
  MAY-03-2014 01:00:00      0.004     0.000     0.037  2492.037
  MAY-03-2014 01:15:00      0.052     0.000     0.120  2492.120
  MAY-03-2014 01:30:00      0.163     0.000     0.211  2492.211
  MAY-03-2014 01:45:00      0.300     0.000     0.288  2492.288
  MAY-03-2014 02:00:00      0.424     0.000     0.346  2492.346
  MAY-03-2014 02:15:00      0.521     0.000     0.388  2492.388
  MAY-03-2014 02:30:00      0.591     0.000     0.417  2492.417
  MAY-03-2014 02:45:00      0.640     0.000     0.436  2492.436
  MAY-03-2014 03:00:00      0.674     0.000     0.450  2492.450
  MAY-03-2014 03:15:00      0.697     0.000     0.459  2492.458
  MAY-03-2014 03:30:00      0.712     0.000     0.465  2492.465
  MAY-03-2014 03:45:00      0.722     0.000     0.469  2492.469
  MAY-03-2014 04:00:00      0.729     0.000     0.471  2492.471
  MAY-03-2014 04:15:00      0.739     0.000     0.475  2492.475
  MAY-03-2014 04:30:00      0.784     0.000     0.493  2492.493
  MAY-03-2014 04:45:00      0.948     0.000     0.556  2492.556
  MAY-03-2014 05:00:00      1.287     0.000     0.671  2492.671
  MAY-03-2014 05:15:00      1.496     0.000     0.722  2492.722
  MAY-03-2014 05:30:00      1.676     0.000     0.758  2492.758
  MAY-03-2014 05:45:00      1.841     0.000     0.787  2492.787
  MAY-03-2014 06:00:00      1.966     0.000     0.804  2492.804
  MAY-03-2014 06:15:00      2.048     0.000     0.815  2492.815
  MAY-03-2014 06:30:00      2.094     0.000     0.821  2492.821
  MAY-03-2014 06:45:00      2.115     0.000     0.824  2492.824
  MAY-03-2014 07:00:00      2.119     0.000     0.824  2492.824
  MAY-03-2014 07:15:00      2.107     0.000     0.823  2492.823
  MAY-03-2014 07:30:00      2.085     0.000     0.820  2492.820
  MAY-03-2014 07:45:00      2.054     0.000     0.816  2492.816
  MAY-03-2014 08:00:00      2.013     0.000     0.811  2492.811
  MAY-03-2014 08:15:00      1.966     0.000     0.804  2492.804
  MAY-03-2014 08:30:00      1.914     0.000     0.798  2492.798
  MAY-03-2014 08:45:00      1.859     0.000     0.790  2492.790
  MAY-03-2014 09:00:00      1.801     0.000     0.780  2492.780
  MAY-03-2014 09:15:00      1.743     0.000     0.770  2492.770
  MAY-03-2014 09:30:00      1.686     0.000     0.760  2492.760
  MAY-03-2014 09:45:00      1.628     0.000     0.749  2492.749
  MAY-03-2014 10:00:00      1.571     0.000     0.737  2492.737
  MAY-03-2014 10:15:00      1.516     0.000     0.726  2492.726
  MAY-03-2014 10:30:00      1.462     0.000     0.714  2492.714
  MAY-03-2014 10:45:00      1.443     0.000     0.709  2492.709
  MAY-03-2014 11:00:00      1.344     0.000     0.686  2492.686
  MAY-03-2014 11:15:00      1.219     0.000     0.654  2492.654
  MAY-03-2014 11:30:00      1.097     0.000     0.616  2492.616
  MAY-03-2014 11:45:00      1.013     0.000     0.582  2492.582
  MAY-03-2014 12:00:00      0.956     0.000     0.559  2492.559
  MAY-03-2014 12:15:00      0.908     0.000     0.541  2492.541
  MAY-03-2014 12:30:00      0.874     0.000     0.528  2492.528
  MAY-03-2014 12:45:00      0.849     0.000     0.518  2492.518
  MAY-03-2014 13:00:00      0.831     0.000     0.511  2492.510
  MAY-03-2014 13:15:00      0.817     0.000     0.505  2492.505
  MAY-03-2014 13:30:00      0.806     0.000     0.501  2492.501
  MAY-03-2014 13:45:00      0.798     0.000     0.498  2492.498
  MAY-03-2014 14:00:00      0.791     0.000     0.495  2492.495
  MAY-03-2014 14:15:00      0.785     0.000     0.493  2492.493
  MAY-03-2014 14:30:00      0.781     0.000     0.491  2492.491
  MAY-03-2014 14:45:00      0.777     0.000     0.490  2492.490
  MAY-03-2014 15:00:00      0.774     0.000     0.489  2492.489
  MAY-03-2014 15:15:00      0.771     0.000     0.488  2492.488
  MAY-03-2014 15:30:00      0.769     0.000     0.487  2492.487
  MAY-03-2014 15:45:00      0.767     0.000     0.486  2492.486
  MAY-03-2014 16:00:00      0.766     0.000     0.485  2492.485
  MAY-03-2014 16:15:00      0.764     0.000     0.485  2492.485
  MAY-03-2014 16:30:00      0.763     0.000     0.484  2492.484
  MAY-03-2014 16:45:00      0.762     0.000     0.484  2492.484
  MAY-03-2014 17:00:00      0.761     0.000     0.483  2492.483
  MAY-03-2014 17:15:00      0.760     0.000     0.483  2492.483
  MAY-03-2014 17:30:00      0.759     0.000     0.483  2492.483
  MAY-03-2014 17:45:00      0.758     0.000     0.482  2492.482
  MAY-03-2014 18:00:00      0.757     0.000     0.482  2492.482
  
  
  <<< Node DES-2 >>>
  ----------------------------------------------------------------
                           Inflow  Flooding     Depth      Head
  Date        Time            CMS       CMS    meters    meters
  ----------------------------------------------------------------
  MAY-03-2014 00:15:00      0.000     0.000     0.000  2493.630
  MAY-03-2014 00:30:00      0.000     0.000     0.000  2493.630
  MAY-03-2014 00:45:00      0.000     0.000     0.000  2493.630
  MAY-03-2014 01:00:00      0.021     0.000     0.075  2493.705
  MAY-03-2014 01:15:00      0.217     0.000     0.242  2493.872
  MAY-03-2014 01:30:00      0.463     0.000     0.374  2494.004
  MAY-03-2014 01:45:00      0.578     0.000     0.435  2494.065
  MAY-03-2014 02:00:00      0.620     0.000     0.458  2494.088
  MAY-03-2014 02:15:00      0.636     0.000     0.467  2494.097
  MAY-03-2014 02:30:00      0.643     0.000     0.471  2494.101
  MAY-03-2014 02:45:00      0.646     0.000     0.473  2494.103
  MAY-03-2014 03:00:00      0.647     0.000     0.474  2494.104
  MAY-03-2014 03:15:00      0.648     0.000     0.474  2494.104
  MAY-03-2014 03:30:00      0.648     0.000     0.474  2494.104
  MAY-03-2014 03:45:00      0.648     0.000     0.474  2494.104
  MAY-03-2014 04:00:00      0.648     0.000     0.475  2494.105
  MAY-03-2014 04:15:00      0.656     0.000     0.480  2494.110
  MAY-03-2014 04:30:00      0.715     0.000     0.518  2494.148
  MAY-03-2014 04:45:00      0.801     0.000     0.564  2494.194
  MAY-03-2014 05:00:00      0.996     0.000     0.603  2494.233
  MAY-03-2014 05:15:00      0.999     0.000     0.604  2494.234
  MAY-03-2014 05:30:00      1.033     0.000     0.608  2494.238
  MAY-03-2014 05:45:00      1.333     0.000     0.650  2494.280
  MAY-03-2014 06:00:00      1.350     0.000     0.650  2494.280
  MAY-03-2014 06:15:00      1.350     0.000     0.650  2494.280
  MAY-03-2014 06:30:00      1.350     0.000     0.650  2494.280
  MAY-03-2014 06:45:00      1.350     0.000     0.650  2494.280
  MAY-03-2014 07:00:00      1.350     0.000     0.650  2494.280
  MAY-03-2014 07:15:00      1.350     0.000     0.650  2494.280
  MAY-03-2014 07:30:00      1.350     0.000     0.650  2494.280
  MAY-03-2014 07:45:00      1.350     0.000     0.650  2494.280
  MAY-03-2014 08:00:00      1.349     0.000     0.650  2494.280
  MAY-03-2014 08:15:00      1.342     0.000     0.650  2494.280
  MAY-03-2014 08:30:00      1.329     0.000     0.650  2494.280
  MAY-03-2014 08:45:00      1.313     0.000     0.650  2494.280
  MAY-03-2014 09:00:00      1.296     0.000     0.650  2494.280
  MAY-03-2014 09:15:00      1.277     0.000     0.650  2494.280
  MAY-03-2014 09:30:00      1.257     0.000     0.650  2494.280
  MAY-03-2014 09:45:00      1.237     0.000     0.650  2494.280
  MAY-03-2014 10:00:00      1.216     0.000     0.650  2494.280
  MAY-03-2014 10:15:00      1.195     0.000     0.650  2494.280
  MAY-03-2014 10:30:00      1.174     0.000     0.650  2494.280
  MAY-03-2014 10:45:00      1.039     0.000     0.609  2494.239
  MAY-03-2014 11:00:00      1.014     0.000     0.606  2494.236
  MAY-03-2014 11:15:00      0.986     0.000     0.602  2494.232
  MAY-03-2014 11:30:00      1.007     0.000     0.605  2494.235
  MAY-03-2014 11:45:00      1.133     0.000     0.620  2494.250
  MAY-03-2014 12:00:00      1.021     0.000     0.606  2494.236
  MAY-03-2014 12:15:00      0.979     0.000     0.601  2494.231
  MAY-03-2014 12:30:00      1.134     0.000     0.620  2494.250
  MAY-03-2014 12:45:00      1.091     0.000     0.615  2494.245
  MAY-03-2014 13:00:00      1.119     0.000     0.619  2494.249
  MAY-03-2014 13:15:00      1.050     0.000     0.610  2494.240
  MAY-03-2014 13:30:00      0.989     0.000     0.603  2494.232
  MAY-03-2014 13:45:00      0.935     0.000     0.594  2494.224
  MAY-03-2014 14:00:00      0.887     0.000     0.584  2494.214
  MAY-03-2014 14:15:00      0.847     0.000     0.576  2494.206
  MAY-03-2014 14:30:00      0.813     0.000     0.567  2494.197
  MAY-03-2014 14:45:00      0.784     0.000     0.559  2494.189
  MAY-03-2014 15:00:00      0.787     0.000     0.560  2494.190
  MAY-03-2014 15:15:00      0.757     0.000     0.552  2494.182
  MAY-03-2014 15:30:00      0.720     0.000     0.522  2494.152
  MAY-03-2014 15:45:00      0.694     0.000     0.504  2494.134
  MAY-03-2014 16:00:00      0.679     0.000     0.494  2494.124
  MAY-03-2014 16:15:00      0.672     0.000     0.489  2494.119
  MAY-03-2014 16:30:00      0.667     0.000     0.486  2494.116
  MAY-03-2014 16:45:00      0.665     0.000     0.485  2494.115
  MAY-03-2014 17:00:00      0.664     0.000     0.484  2494.114
  MAY-03-2014 17:15:00      0.662     0.000     0.483  2494.113
  MAY-03-2014 17:30:00      0.662     0.000     0.483  2494.113
  MAY-03-2014 17:45:00      0.661     0.000     0.482  2494.112
  MAY-03-2014 18:00:00      0.660     0.000     0.482  2494.112
  
  
  <<< Node DES-3 >>>
  ----------------------------------------------------------------
                           Inflow  Flooding     Depth      Head
  Date        Time            CMS       CMS    meters    meters
  ----------------------------------------------------------------
  MAY-03-2014 00:15:00      0.000     0.000     0.000  2493.130
  MAY-03-2014 00:30:00      0.000     0.000     0.000  2493.130
  MAY-03-2014 00:45:00      0.000     0.000     0.000  2493.130
  MAY-03-2014 01:00:00      0.022     0.000     0.077  2493.207
  MAY-03-2014 01:15:00      0.178     0.000     0.217  2493.347
  MAY-03-2014 01:30:00      0.384     0.000     0.330  2493.460
  MAY-03-2014 01:45:00      0.508     0.000     0.390  2493.520
  MAY-03-2014 02:00:00      0.564     0.000     0.417  2493.547
  MAY-03-2014 02:15:00      0.589     0.000     0.429  2493.559
  MAY-03-2014 02:30:00      0.600     0.000     0.434  2493.564
  MAY-03-2014 02:45:00      0.605     0.000     0.436  2493.566
  MAY-03-2014 03:00:00      0.607     0.000     0.437  2493.567
  MAY-03-2014 03:15:00      0.608     0.000     0.438  2493.568
  MAY-03-2014 03:30:00      0.608     0.000     0.438  2493.568
  MAY-03-2014 03:45:00      0.609     0.000     0.438  2493.568
  MAY-03-2014 04:00:00      0.609     0.000     0.438  2493.568
  MAY-03-2014 04:15:00      0.618     0.000     0.443  2493.573
  MAY-03-2014 04:30:00      0.687     0.000     0.477  2493.607
  MAY-03-2014 04:45:00      0.879     0.000     0.586  2493.716
  MAY-03-2014 05:00:00      0.973     0.000     0.610  2493.740
  MAY-03-2014 05:15:00      1.146     0.000     0.644  2493.774
  MAY-03-2014 05:30:00      1.327     0.000     0.664  2493.794
  MAY-03-2014 05:45:00      1.185     0.000     0.648  2493.778
  MAY-03-2014 06:00:00      1.218     0.000     0.652  2493.782
  MAY-03-2014 06:15:00      1.190     0.000     0.649  2493.779
  MAY-03-2014 06:30:00      1.275     0.000     0.658  2493.788
  MAY-03-2014 06:45:00      1.275     0.000     0.658  2493.788
  MAY-03-2014 07:00:00      1.275     0.000     0.658  2493.788
  MAY-03-2014 07:15:00      1.273     0.000     0.658  2493.788
  MAY-03-2014 07:30:00      1.182     0.000     0.648  2493.778
  MAY-03-2014 07:45:00      1.262     0.000     0.657  2493.787
  MAY-03-2014 08:00:00      1.377     0.000     0.669  2493.800
  MAY-03-2014 08:15:00      1.363     0.000     0.668  2493.798
  MAY-03-2014 08:30:00      1.348     0.000     0.666  2493.796
  MAY-03-2014 08:45:00      1.247     0.000     0.655  2493.785
  MAY-03-2014 09:00:00      1.238     0.000     0.654  2493.784
  MAY-03-2014 09:15:00      1.217     0.000     0.652  2493.782
  MAY-03-2014 09:30:00      1.195     0.000     0.649  2493.779
  MAY-03-2014 09:45:00      1.304     0.000     0.661  2493.792
  MAY-03-2014 10:00:00      1.297     0.000     0.661  2493.791
  MAY-03-2014 10:15:00      1.345     0.000     0.666  2493.796
  MAY-03-2014 10:30:00      1.188     0.000     0.649  2493.779
  MAY-03-2014 10:45:00      1.376     0.000     0.669  2493.799
  MAY-03-2014 11:00:00      1.321     0.000     0.663  2493.793
  MAY-03-2014 11:15:00      1.269     0.000     0.658  2493.788
  MAY-03-2014 11:30:00      1.218     0.000     0.652  2493.782
  MAY-03-2014 11:45:00      1.170     0.000     0.647  2493.777
  MAY-03-2014 12:00:00      1.122     0.000     0.639  2493.770
  MAY-03-2014 12:15:00      1.077     0.000     0.631  2493.761
  MAY-03-2014 12:30:00      1.034     0.000     0.623  2493.753
  MAY-03-2014 12:45:00      0.995     0.000     0.615  2493.745
  MAY-03-2014 13:00:00      0.956     0.000     0.606  2493.736
  MAY-03-2014 13:15:00      0.921     0.000     0.597  2493.727
  MAY-03-2014 13:30:00      0.889     0.000     0.589  2493.719
  MAY-03-2014 13:45:00      0.882     0.000     0.587  2493.717
  MAY-03-2014 14:00:00      0.793     0.000     0.536  2493.666
  MAY-03-2014 14:15:00      0.717     0.000     0.493  2493.623
  MAY-03-2014 14:30:00      0.674     0.000     0.470  2493.601
  MAY-03-2014 14:45:00      0.651     0.000     0.459  2493.589
  MAY-03-2014 15:00:00      0.640     0.000     0.453  2493.583
  MAY-03-2014 15:15:00      0.633     0.000     0.450  2493.580
  MAY-03-2014 15:30:00      0.630     0.000     0.449  2493.579
  MAY-03-2014 15:45:00      0.628     0.000     0.448  2493.578
  MAY-03-2014 16:00:00      0.627     0.000     0.447  2493.577
  MAY-03-2014 16:15:00      0.625     0.000     0.446  2493.576
  MAY-03-2014 16:30:00      0.624     0.000     0.446  2493.576
  MAY-03-2014 16:45:00      0.624     0.000     0.445  2493.575
  MAY-03-2014 17:00:00      0.623     0.000     0.445  2493.575
  MAY-03-2014 17:15:00      0.622     0.000     0.445  2493.575
  MAY-03-2014 17:30:00      0.622     0.000     0.444  2493.574
  MAY-03-2014 17:45:00      0.621     0.000     0.444  2493.574
[...]
  MAY-03-2014 17:15:00      0.622     2.391     0.448     0.676
  MAY-03-2014 17:30:00      0.622     2.390     0.448     0.676
  MAY-03-2014 17:45:00      0.621     2.390     0.448     0.675
  MAY-03-2014 18:00:00      0.620     2.389     0.447     0.675
  
  
  <<< Link C-11 >>>
  ----------------------------------------------------------------
                             Flow  Velocity     Depth  Capacity/
  Date        Time            CMS     m/sec    meters   Setting 
  ----------------------------------------------------------------
  MAY-03-2014 00:15:00      0.000     0.000     0.001     0.000
  MAY-03-2014 00:30:00      0.073     0.419     0.058     0.029
  MAY-03-2014 00:45:00      1.399     1.363     0.342     0.171
  MAY-03-2014 01:00:00      2.060     1.424     0.482     0.241
  MAY-03-2014 01:15:00      2.055     1.344     0.510     0.255
  MAY-03-2014 01:30:00      2.017     1.316     0.511     0.255
  MAY-03-2014 01:45:00      2.002     1.310     0.509     0.255
  MAY-03-2014 02:00:00      1.999     1.310     0.509     0.254
  MAY-03-2014 02:15:00      1.999     1.310     0.509     0.254
  MAY-03-2014 02:30:00      2.000     1.310     0.509     0.254
  MAY-03-2014 02:45:00      2.000     1.311     0.509     0.254
  MAY-03-2014 03:00:00      2.000     1.310     0.509     0.254
  MAY-03-2014 03:15:00      2.000     1.310     0.509     0.254
  MAY-03-2014 03:30:00      2.000     1.310     0.509     0.254
  MAY-03-2014 03:45:00      2.001     1.311     0.509     0.254
  MAY-03-2014 04:00:00      2.052     1.328     0.515     0.257
  MAY-03-2014 04:15:00      2.519     1.468     0.572     0.286
  MAY-03-2014 04:30:00      3.931     1.744     0.751     0.376
  MAY-03-2014 04:45:00      6.333     2.045     1.032     0.516
  MAY-03-2014 05:00:00      8.909     2.259     1.315     0.657
  MAY-03-2014 05:15:00     10.556     2.330     1.510     0.755
  MAY-03-2014 05:30:00     10.561     2.274     1.548     0.774
  MAY-03-2014 05:45:00      9.667     2.201     1.464     0.732
  MAY-03-2014 06:00:00      8.510     2.123     1.336     0.668
  MAY-03-2014 06:15:00      7.391     2.050     1.202     0.601
  MAY-03-2014 06:30:00      6.400     1.952     1.093     0.546
  MAY-03-2014 06:45:00      5.590     1.853     1.005     0.503
  MAY-03-2014 07:00:00      4.943     1.772     0.930     0.465
  MAY-03-2014 07:15:00      4.432     1.701     0.868     0.434
  MAY-03-2014 07:30:00      4.026     1.648     0.814     0.407
  MAY-03-2014 07:45:00      3.704     1.611     0.766     0.383
  MAY-03-2014 08:00:00      3.445     1.584     0.725     0.362
  MAY-03-2014 08:15:00      3.236     1.564     0.690     0.345
  MAY-03-2014 08:30:00      3.064     1.539     0.664     0.332
  MAY-03-2014 08:45:00      2.923     1.514     0.644     0.322
  MAY-03-2014 09:00:00      2.805     1.492     0.627     0.313
  MAY-03-2014 09:15:00      2.706     1.473     0.612     0.306
  MAY-03-2014 09:30:00      2.622     1.456     0.600     0.300
  MAY-03-2014 09:45:00      2.550     1.439     0.591     0.295
  MAY-03-2014 10:00:00      2.489     1.425     0.582     0.291
  MAY-03-2014 10:15:00      2.435     1.413     0.574     0.287
  MAY-03-2014 10:30:00      2.388     1.403     0.567     0.284
  MAY-03-2014 10:45:00      2.348     1.395     0.561     0.281
  MAY-03-2014 11:00:00      2.312     1.384     0.557     0.278
  MAY-03-2014 11:15:00      2.260     1.370     0.550     0.275
  MAY-03-2014 11:30:00      2.222     1.362     0.544     0.272
  MAY-03-2014 11:45:00      2.199     1.357     0.540     0.270
  MAY-03-2014 12:00:00      2.181     1.353     0.537     0.269
  MAY-03-2014 12:15:00      2.164     1.349     0.535     0.267
  MAY-03-2014 12:30:00      2.148     1.346     0.532     0.266
  MAY-03-2014 12:45:00      2.134     1.342     0.530     0.265
  MAY-03-2014 13:00:00      2.121     1.339     0.528     0.264
  MAY-03-2014 13:15:00      2.110     1.337     0.526     0.263
  MAY-03-2014 13:30:00      2.100     1.334     0.525     0.262
  MAY-03-2014 13:45:00      2.091     1.332     0.523     0.262
  MAY-03-2014 14:00:00      2.084     1.331     0.522     0.261
  MAY-03-2014 14:15:00      2.077     1.329     0.521     0.260
  MAY-03-2014 14:30:00      2.071     1.328     0.520     0.260
  MAY-03-2014 14:45:00      2.066     1.326     0.519     0.260
  MAY-03-2014 15:00:00      2.061     1.325     0.518     0.259
  MAY-03-2014 15:15:00      2.058     1.325     0.518     0.259
  MAY-03-2014 15:30:00      2.055     1.324     0.517     0.259
  MAY-03-2014 15:45:00      2.052     1.323     0.517     0.258
  MAY-03-2014 16:00:00      2.049     1.323     0.516     0.258
  MAY-03-2014 16:15:00      2.047     1.322     0.516     0.258
  MAY-03-2014 16:30:00      2.045     1.321     0.516     0.258
  MAY-03-2014 16:45:00      2.042     1.321     0.515     0.258
  MAY-03-2014 17:00:00      2.040     1.320     0.515     0.258
  MAY-03-2014 17:15:00      2.038     1.320     0.515     0.257
  MAY-03-2014 17:30:00      2.037     1.320     0.514     0.257
  MAY-03-2014 17:45:00      2.035     1.319     0.514     0.257
  MAY-03-2014 18:00:00      2.033     1.319     0.514     0.257
  
  
  <<< Link R-4 >>>
  ----------------------------------------------------------------
                             Flow  Velocity     Depth  Capacity/
  Date        Time            CMS     m/sec    meters   Setting 
  ----------------------------------------------------------------
  MAY-03-2014 00:15:00      0.000     0.000     0.000     1.000
  MAY-03-2014 00:30:00      0.002     0.000     0.009     1.000
  MAY-03-2014 00:45:00      0.352     0.000     0.270     1.000
  MAY-03-2014 01:00:00      0.675     0.000     0.474     1.000
  MAY-03-2014 01:15:00      0.744     0.000     0.534     1.000
  MAY-03-2014 01:30:00      0.748     0.000     0.542     1.000
  MAY-03-2014 01:45:00      0.744     0.000     0.541     1.000
  MAY-03-2014 02:00:00      0.743     0.000     0.540     1.000
  MAY-03-2014 02:15:00      0.743     0.000     0.540     1.000
  MAY-03-2014 02:30:00      0.743     0.000     0.540     1.000
  MAY-03-2014 02:45:00      0.743     0.000     0.540     1.000
  MAY-03-2014 03:00:00      0.743     0.000     0.540     1.000
  MAY-03-2014 03:15:00      0.743     0.000     0.540     1.000
  MAY-03-2014 03:30:00      0.743     0.000     0.540     1.000
  MAY-03-2014 03:45:00      0.743     0.000     0.540     1.000
  MAY-03-2014 04:00:00      0.755     0.000     0.544     1.000
  MAY-03-2014 04:15:00      0.877     0.000     0.585     1.000
  MAY-03-2014 04:30:00      1.303     0.000     0.730     1.000
  MAY-03-2014 04:45:00      2.130     0.000     0.995     1.000
  MAY-03-2014 05:00:00      3.066     0.000     1.272     1.000
  MAY-03-2014 05:15:00      3.770     0.000     1.490     1.000
  MAY-03-2014 05:30:00      3.899     0.000     1.558     1.000
  MAY-03-2014 05:45:00      3.601     0.000     1.487     1.000
  MAY-03-2014 06:00:00      3.184     0.000     1.363     1.000
  MAY-03-2014 06:15:00      2.734     0.000     1.225     1.000
  MAY-03-2014 06:30:00      2.415     0.000     1.124     1.000
  MAY-03-2014 06:45:00      2.161     0.000     1.047     1.000
  MAY-03-2014 07:00:00      1.937     0.000     0.976     1.000
  MAY-03-2014 07:15:00      1.763     0.000     0.918     1.000
  MAY-03-2014 07:30:00      1.594     0.000     0.863     1.000
  MAY-03-2014 07:45:00      1.435     0.000     0.809     1.000
  MAY-03-2014 08:00:00      1.301     0.000     0.762     1.000
  MAY-03-2014 08:15:00      1.187     0.000     0.720     1.000
  MAY-03-2014 08:30:00      1.118     0.000     0.693     1.000
  MAY-03-2014 08:45:00      1.066     0.000     0.672     1.000
  MAY-03-2014 09:00:00      1.022     0.000     0.655     1.000
  MAY-03-2014 09:15:00      0.986     0.000     0.641     1.000
  MAY-03-2014 09:30:00      0.955     0.000     0.629     1.000
  MAY-03-2014 09:45:00      0.936     0.000     0.621     1.000
  MAY-03-2014 10:00:00      0.916     0.000     0.613     1.000
  MAY-03-2014 10:15:00      0.896     0.000     0.605     1.000
  MAY-03-2014 10:30:00      0.879     0.000     0.598     1.000
  MAY-03-2014 10:45:00      0.864     0.000     0.592     1.000
  MAY-03-2014 11:00:00      0.857     0.000     0.588     1.000
  MAY-03-2014 11:15:00      0.841     0.000     0.583     1.000
  MAY-03-2014 11:30:00      0.827     0.000     0.576     1.000
  MAY-03-2014 11:45:00      0.817     0.000     0.572     1.000
  MAY-03-2014 12:00:00      0.810     0.000     0.569     1.000
  MAY-03-2014 12:15:00      0.804     0.000     0.566     1.000
  MAY-03-2014 12:30:00      0.798     0.000     0.564     1.000
  MAY-03-2014 12:45:00      0.793     0.000     0.562     1.000
  MAY-03-2014 13:00:00      0.788     0.000     0.560     1.000
  MAY-03-2014 13:15:00      0.784     0.000     0.558     1.000
  MAY-03-2014 13:30:00      0.780     0.000     0.556     1.000
  MAY-03-2014 13:45:00      0.777     0.000     0.555     1.000
  MAY-03-2014 14:00:00      0.774     0.000     0.554     1.000
  MAY-03-2014 14:15:00      0.772     0.000     0.553     1.000
  MAY-03-2014 14:30:00      0.769     0.000     0.552     1.000
  MAY-03-2014 14:45:00      0.767     0.000     0.551     1.000
  MAY-03-2014 15:00:00      0.766     0.000     0.550     1.000
  MAY-03-2014 15:15:00      0.764     0.000     0.550     1.000
  MAY-03-2014 15:30:00      0.763     0.000     0.549     1.000
  MAY-03-2014 15:45:00      0.762     0.000     0.549     1.000
  MAY-03-2014 16:00:00      0.761     0.000     0.548     1.000
  MAY-03-2014 16:15:00      0.760     0.000     0.548     1.000
  MAY-03-2014 16:30:00      0.759     0.000     0.547     1.000
  MAY-03-2014 16:45:00      0.759     0.000     0.547     1.000
  MAY-03-2014 17:00:00      0.758     0.000     0.547     1.000
  MAY-03-2014 17:15:00      0.757     0.000     0.546     1.000
  MAY-03-2014 17:30:00      0.756     0.000     0.546     1.000
  MAY-03-2014 17:45:00      0.756     0.000     0.546     1.000
  MAY-03-2014 18:00:00      0.755     0.000     0.546     1.000
  
  
  <<< Link R-5 >>>
  ----------------------------------------------------------------
                             Flow  Velocity     Depth  Capacity/
  Date        Time            CMS     m/sec    meters   Setting 
  ----------------------------------------------------------------
  MAY-03-2014 00:15:00      0.000     0.000     0.000     1.000
  MAY-03-2014 00:30:00      0.002     0.000     0.009     1.000
  MAY-03-2014 00:45:00      0.360     0.000     0.270     1.000
  MAY-03-2014 01:00:00      0.665     0.000     0.474     1.000
  MAY-03-2014 01:15:00      0.672     0.000     0.534     1.000
  MAY-03-2014 01:30:00      0.655     0.000     0.542     1.000
  MAY-03-2014 01:45:00      0.649     0.000     0.541     1.000
  MAY-03-2014 02:00:00      0.648     0.000     0.540     1.000
  MAY-03-2014 02:15:00      0.648     0.000     0.540     1.000
  MAY-03-2014 02:30:00      0.648     0.000     0.540     1.000
  MAY-03-2014 02:45:00      0.648     0.000     0.540     1.000
  MAY-03-2014 03:00:00      0.648     0.000     0.540     1.000
  MAY-03-2014 03:15:00      0.648     0.000     0.540     1.000
  MAY-03-2014 03:30:00      0.648     0.000     0.540     1.000
  MAY-03-2014 03:45:00      0.648     0.000     0.540     1.000
  MAY-03-2014 04:00:00      0.661     0.000     0.544     1.000
  MAY-03-2014 04:15:00      0.789     0.000     0.585     1.000
  MAY-03-2014 04:30:00      1.214     0.000     0.730     1.000
  MAY-03-2014 04:45:00      2.000     0.000     0.995     1.000
  MAY-03-2014 05:00:00      2.838     0.000     1.272     1.000
  MAY-03-2014 05:15:00      3.387     0.000     1.490     1.000
  MAY-03-2014 05:30:00      3.386     0.000     1.558     1.000
  MAY-03-2014 05:45:00      3.174     0.000     1.487     1.000
  MAY-03-2014 06:00:00      2.822     0.000     1.363     1.000
  MAY-03-2014 06:15:00      2.466     0.000     1.225     1.000
  MAY-03-2014 06:30:00      2.186     0.000     1.124     1.000
  MAY-03-2014 06:45:00      1.959     0.000     1.047     1.000
  MAY-03-2014 07:00:00      1.757     0.000     0.976     1.000
  MAY-03-2014 07:15:00      1.599     0.000     0.918     1.000
  MAY-03-2014 07:30:00      1.445     0.000     0.863     1.000
  MAY-03-2014 07:45:00      1.301     0.000     0.809     1.000
  MAY-03-2014 08:00:00      1.178     0.000     0.762     1.000
  MAY-03-2014 08:15:00      1.074     0.000     0.720     1.000
  MAY-03-2014 08:30:00      1.011     0.000     0.693     1.000
  MAY-03-2014 08:45:00      0.963     0.000     0.672     1.000
  MAY-03-2014 09:00:00      0.923     0.000     0.655     1.000
  MAY-03-2014 09:15:00      0.890     0.000     0.641     1.000
  MAY-03-2014 09:30:00      0.862     0.000     0.629     1.000
  MAY-03-2014 09:45:00      0.846     0.000     0.621     1.000
  MAY-03-2014 10:00:00      0.826     0.000     0.613     1.000
  MAY-03-2014 10:15:00      0.808     0.000     0.605     1.000
  MAY-03-2014 10:30:00      0.793     0.000     0.598     1.000
  MAY-03-2014 10:45:00      0.779     0.000     0.592     1.000
  MAY-03-2014 11:00:00      0.752     0.000     0.588     1.000
  MAY-03-2014 11:15:00      0.735     0.000     0.583     1.000
  MAY-03-2014 11:30:00      0.721     0.000     0.576     1.000
  MAY-03-2014 11:45:00      0.714     0.000     0.572     1.000
  MAY-03-2014 12:00:00      0.708     0.000     0.569     1.000
  MAY-03-2014 12:15:00      0.702     0.000     0.566     1.000
  MAY-03-2014 12:30:00      0.697     0.000     0.564     1.000
  MAY-03-2014 12:45:00      0.692     0.000     0.562     1.000
  MAY-03-2014 13:00:00      0.688     0.000     0.560     1.000
  MAY-03-2014 13:15:00      0.684     0.000     0.558     1.000
  MAY-03-2014 13:30:00      0.681     0.000     0.556     1.000
  MAY-03-2014 13:45:00      0.678     0.000     0.555     1.000
  MAY-03-2014 14:00:00      0.676     0.000     0.554     1.000
  MAY-03-2014 14:15:00      0.674     0.000     0.553     1.000
  MAY-03-2014 14:30:00      0.672     0.000     0.552     1.000
  MAY-03-2014 14:45:00      0.670     0.000     0.551     1.000
  MAY-03-2014 15:00:00      0.668     0.000     0.550     1.000
  MAY-03-2014 15:15:00      0.667     0.000     0.550     1.000
  MAY-03-2014 15:30:00      0.666     0.000     0.549     1.000
  MAY-03-2014 15:45:00      0.665     0.000     0.549     1.000
  MAY-03-2014 16:00:00      0.664     0.000     0.548     1.000
  MAY-03-2014 16:15:00      0.664     0.000     0.548     1.000
  MAY-03-2014 16:30:00      0.663     0.000     0.547     1.000
  MAY-03-2014 16:45:00      0.662     0.000     0.547     1.000
  MAY-03-2014 17:00:00      0.661     0.000     0.547     1.000
  MAY-03-2014 17:15:00      0.661     0.000     0.546     1.000
  MAY-03-2014 17:30:00      0.660     0.000     0.546     1.000
  MAY-03-2014 17:45:00      0.660     0.000     0.546     1.000
  MAY-03-2014 18:00:00      0.659     0.000     0.546     1.000
  
  
  <<< Link R-6 >>>
  ----------------------------------------------------------------
                             Flow  Velocity     Depth  Capacity/
  Date        Time            CMS     m/sec    meters   Setting 
  ----------------------------------------------------------------
  MAY-03-2014 00:15:00      0.000     0.000     0.000     1.000
  MAY-03-2014 00:30:00      0.002     0.000     0.009     1.000
  MAY-03-2014 00:45:00      0.323     0.000     0.270     1.000
  MAY-03-2014 01:00:00      0.564     0.000     0.474     1.000
  MAY-03-2014 01:15:00      0.611     0.000     0.534     1.000
  MAY-03-2014 01:30:00      0.613     0.000     0.542     1.000
  MAY-03-2014 01:45:00      0.610     0.000     0.541     1.000
  MAY-03-2014 02:00:00      0.609     0.000     0.540     1.000
  MAY-03-2014 02:15:00      0.609     0.000     0.540     1.000
  MAY-03-2014 02:30:00      0.609     0.000     0.540     1.000
  MAY-03-2014 02:45:00      0.609     0.000     0.540     1.000
  MAY-03-2014 03:00:00      0.609     0.000     0.540     1.000
  MAY-03-2014 03:15:00      0.609     0.000     0.540     1.000
  MAY-03-2014 03:30:00      0.609     0.000     0.540     1.000
  MAY-03-2014 03:45:00      0.609     0.000     0.540     1.000
  MAY-03-2014 04:00:00      0.621     0.000     0.544     1.000
  MAY-03-2014 04:15:00      0.737     0.000     0.585     1.000
  MAY-03-2014 04:30:00      1.124     0.000     0.730     1.000
  MAY-03-2014 04:45:00      1.849     0.000     0.995     1.000
  MAY-03-2014 05:00:00      2.651     0.000     1.272     1.000
  MAY-03-2014 05:15:00      3.205     0.000     1.490     1.000
  MAY-03-2014 05:30:00      3.283     0.000     1.558     1.000
  MAY-03-2014 05:45:00      3.034     0.000     1.487     1.000
  MAY-03-2014 06:00:00      2.686     0.000     1.363     1.000
  MAY-03-2014 06:15:00      2.348     0.000     1.225     1.000
  MAY-03-2014 06:30:00      1.883     0.000     1.124     1.000
  MAY-03-2014 06:45:00      1.571     0.000     1.047     1.000
  MAY-03-2014 07:00:00      1.329     0.000     0.976     1.000
  MAY-03-2014 07:15:00      1.139     0.000     0.918     1.000
  MAY-03-2014 07:30:00      1.058     0.000     0.863     1.000
  MAY-03-2014 07:45:00      1.033     0.000     0.809     1.000
  MAY-03-2014 08:00:00      1.023     0.000     0.762     1.000
  MAY-03-2014 08:15:00      1.022     0.000     0.720     1.000
  MAY-03-2014 08:30:00      0.964     0.000     0.693     1.000
  MAY-03-2014 08:45:00      0.918     0.000     0.672     1.000
  MAY-03-2014 09:00:00      0.880     0.000     0.655     1.000
  MAY-03-2014 09:15:00      0.848     0.000     0.641     1.000
  MAY-03-2014 09:30:00      0.820     0.000     0.629     1.000
  MAY-03-2014 09:45:00      0.777     0.000     0.621     1.000
  MAY-03-2014 10:00:00      0.757     0.000     0.613     1.000
  MAY-03-2014 10:15:00      0.740     0.000     0.605     1.000
  MAY-03-2014 10:30:00      0.726     0.000     0.598     1.000
  MAY-03-2014 10:45:00      0.713     0.000     0.592     1.000
  MAY-03-2014 11:00:00      0.707     0.000     0.588     1.000
  MAY-03-2014 11:15:00      0.693     0.000     0.583     1.000
  MAY-03-2014 11:30:00      0.681     0.000     0.576     1.000
  MAY-03-2014 11:45:00      0.673     0.000     0.572     1.000
  MAY-03-2014 12:00:00      0.667     0.000     0.569     1.000
  MAY-03-2014 12:15:00      0.661     0.000     0.566     1.000
  MAY-03-2014 12:30:00      0.656     0.000     0.564     1.000
  MAY-03-2014 12:45:00      0.652     0.000     0.562     1.000
  MAY-03-2014 13:00:00      0.648     0.000     0.560     1.000
  MAY-03-2014 13:15:00      0.644     0.000     0.558     1.000
  MAY-03-2014 13:30:00      0.641     0.000     0.556     1.000
  MAY-03-2014 13:45:00      0.638     0.000     0.555     1.000
  MAY-03-2014 14:00:00      0.635     0.000     0.554     1.000
  MAY-03-2014 14:15:00      0.633     0.000     0.553     1.000
  MAY-03-2014 14:30:00      0.631     0.000     0.552     1.000
  MAY-03-2014 14:45:00      0.630     0.000     0.551     1.000
  MAY-03-2014 15:00:00      0.628     0.000     0.550     1.000
  MAY-03-2014 15:15:00      0.627     0.000     0.550     1.000
  MAY-03-2014 15:30:00      0.626     0.000     0.549     1.000
  MAY-03-2014 15:45:00      0.625     0.000     0.549     1.000
  MAY-03-2014 16:00:00      0.624     0.000     0.548     1.000
  MAY-03-2014 16:15:00      0.624     0.000     0.548     1.000
  MAY-03-2014 16:30:00      0.623     0.000     0.547     1.000
  MAY-03-2014 16:45:00      0.622     0.000     0.547     1.000
  MAY-03-2014 17:00:00      0.621     0.000     0.547     1.000
  MAY-03-2014 17:15:00      0.621     0.000     0.546     1.000
  MAY-03-2014 17:30:00      0.620     0.000     0.546     1.000
  MAY-03-2014 17:45:00      0.620     0.000     0.546     1.000
  MAY-03-2014 18:00:00      0.619     0.000     0.546     1.000
  

  Analysis begun on:  Sat Apr 04 23:44:12 2015
  Analysis ended on:  Sat Apr 04 23:44:13 2015
  Total elapsed time: 00:00:01